1-Phenylbutan-1-one
 OpenBabel01150813363D

 23 23  0  0  0  0  0  0  0  0999 V2000
    1.2889    0.1778   -0.3932 C   0  0  0  0  0
    2.6734    0.0684   -0.3560 C   0  0  0  0  0
    3.2751   -1.1855   -0.4040 C   0  0  0  0  0
    2.4906   -2.3300   -0.4957 C   0  0  0  0  0
    1.1042   -2.2252   -0.5417 C   0  0  0  0  0
    0.4994   -0.9695   -0.4847 C   0  0  0  0  0
    0.8045    1.1664   -0.3529 H   0  0  0  0  0
    3.2905    0.9704   -0.2888 H   0  0  0  0  0
    4.3663   -1.2704   -0.3720 H   0  0  0  0  0
    2.9635   -3.3168   -0.5370 H   0  0  0  0  0
    0.4864   -3.1262   -0.6305 H   0  0  0  0  0
   -0.9886   -0.8567   -0.5363 C   0  0  0  0  0
   -1.6415    0.0142    0.5214 C   0  0  0  0  0
   -1.6435   -1.4464   -1.3740 O   0  0  0  0  0
   -1.7955    1.4451    0.0274 C   0  0  0  0  0
   -1.0335   -0.0088    1.4473 H   0  0  0  0  0
   -2.6324   -0.3982    0.7983 H   0  0  0  0  0
   -2.4503    2.3189    1.0727 C   0  0  0  0  0
   -2.3883    1.4613   -0.9080 H   0  0  0  0  0
   -0.7947    1.8533   -0.2413 H   0  0  0  0  0
   -1.8641    2.3507    2.0008 H   0  0  0  0  0
   -3.4537    1.9562    1.3327 H   0  0  0  0  0
   -2.5568    3.3511    0.7156 H   0  0  0  0  0
  1  2  2  0  0  0
  6  1  1  0  0  0
  1  7  1  0  0  0
  2  3  1  0  0  0
  2  8  1  0  0  0
  3  4  2  0  0  0
  3  9  1  0  0  0
  4  5  1  0  0  0
  4 10  1  0  0  0
  5  6  2  0  0  0
  5 11  1  0  0  0
  6 12  1  0  0  0
 12 13  1  0  0  0
 12 14  2  0  0  0
 13 15  1  0  0  0
 13 16  1  0  0  0
 13 17  1  0  0  0
 15 18  1  0  0  0
 15 19  1  0  0  0
 15 20  1  0  0  0
 18 21  1  0  0  0
 18 22  1  0  0  0
 18 23  1  0  0  0
M  END
