2-Chloro-4-nitroaniline
 OpenBabel01150813363D

 16 16  0  0  0  0  0  0  0  0999 V2000
    1.2614    0.5420    0.0677 C   0  0  0  0  0
    1.0767   -0.8331    0.0816 C   0  0  0  0  0
   -0.2180   -1.3624    0.0361 C   0  0  0  0  0
   -1.3203   -0.4964   -0.0254 C   0  0  0  0  0
    0.1611    1.4184    0.0113 C   0  0  0  0  0
   -1.1348    0.8745   -0.0422 C   0  0  0  0  0
   -0.4247   -2.8400    0.0520 N   0  0  0  0  0
    0.3439    2.8148    0.1093 N   0  0  0  0  0
    2.8365    1.1504    0.1153 Cl  0  0  0  0  0
    0.5398   -3.5800    0.0703 O   0  0  0  0  0
    1.9582   -1.4902    0.1288 H   0  0  0  0  0
   -2.3427   -0.8992   -0.0616 H   0  0  0  0  0
   -2.0108    1.5335   -0.0932 H   0  0  0  0  0
   -0.4062    3.3364   -0.2821 H   0  0  0  0  0
    1.2361    3.1175   -0.2118 H   0  0  0  0  0
   -1.5559   -3.2862    0.0440 O   0  0  0  0  0
  1  2  1  0  0  0
  1  5  2  0  0  0
  1  9  1  0  0  0
  2  3  2  0  0  0
  2 11  1  0  0  0
  3  4  1  0  0  0
  3  7  1  0  0  0
  6  4  2  0  0  0
  4 12  1  0  0  0
  5  6  1  0  0  0
  8  5  1  0  0  0
  6 13  1  0  0  0
  7 10  2  0  0  0
  7 16  1  0  0  0
  8 14  1  0  0  0
  8 15  1  0  0  0
M  END
