2-Bromophenol
 OpenBabel01150813363D

 13 13  0  0  0  0  0  0  0  0999 V2000
   -0.2486    1.6092    0.0613 C   0  0  0  0  0
    1.0231    1.0695    0.0454 C   0  0  0  0  0
    1.2924   -0.2808   -0.0058 C   0  0  0  0  0
    0.1875   -1.1467   -0.0437 C   0  0  0  0  0
   -1.1218   -0.6415   -0.0293 C   0  0  0  0  0
   -1.3304    0.7331    0.0232 C   0  0  0  0  0
   -0.3872    2.6938    0.1028 H   0  0  0  0  0
    2.4735    2.2475    0.0968 Br  0  0  0  0  0
    0.4724   -2.4821   -0.0943 O   0  0  0  0  0
   -1.9821   -1.3201   -0.0589 H   0  0  0  0  0
   -2.3521    1.1270    0.0345 H   0  0  0  0  0
   -0.3494   -2.9566   -0.1159 H   0  0  0  0  0
    2.3228   -0.6522   -0.0161 H   0  0  0  0  0
  1  2  2  0  0  0
  6  1  1  0  0  0
  1  7  1  0  0  0
  2  3  1  0  0  0
  2  8  1  0  0  0
  3  4  2  0  0  0
  3 13  1  0  0  0
  4  5  1  0  0  0
  4  9  1  0  0  0
  5  6  2  0  0  0
  5 10  1  0  0  0
  6 11  1  0  0  0
  9 12  1  0  0  0
M  END
