4-Methoxybenzaldehyde
 OpenBabel01150813363D

 18 18  0  0  0  0  0  0  0  0999 V2000
    1.6221    0.9121    0.0883 C   0  0  0  0  0
    1.7858   -0.4723   -0.0242 C   0  0  0  0  0
    0.6619   -1.2959   -0.1012 C   0  0  0  0  0
   -0.6174   -0.7566   -0.0672 C   0  0  0  0  0
   -0.7705    0.6305    0.0459 C   0  0  0  0  0
    0.3539    1.4697    0.1241 C   0  0  0  0  0
   -1.9733    1.2991    0.0918 O   0  0  0  0  0
   -3.1504    0.5323    0.0176 C   0  0  0  0  0
    3.1310   -1.0912   -0.0640 C   0  0  0  0  0
    4.1650   -0.4637   -0.0041 O   0  0  0  0  0
    2.5061    1.5594    0.1487 H   0  0  0  0  0
    0.7860   -2.3822   -0.1896 H   0  0  0  0  0
   -1.4847   -1.4234   -0.1293 H   0  0  0  0  0
    0.2300    2.5556    0.2125 H   0  0  0  0  0
   -3.9290    1.2978    0.0761 H   0  0  0  0  0
   -3.2455   -0.1659    0.8571 H   0  0  0  0  0
   -3.2310   -0.0146   -0.9288 H   0  0  0  0  0
    3.1601   -2.1908   -0.1538 H   0  0  0  0  0
  1  2  1  0  0  0
  6  1  2  0  0  0
  1 11  1  0  0  0
  2  3  2  0  0  0
  2  9  1  0  0  0
  3  4  1  0  0  0
  3 12  1  0  0  0
  4  5  2  0  0  0
  4 13  1  0  0  0
  5  6  1  0  0  0
  5  7  1  0  0  0
  6 14  1  0  0  0
  7  8  1  0  0  0
  8 15  1  0  0  0
  8 16  1  0  0  0
  8 17  1  0  0  0
  9 10  2  0  0  0
  9 18  1  0  0  0
M  END
