5-phenyl-1_3-dihydro-2H-1_4-benzodiazepin-2-one.gpr
 OpenBabel01150813363D

 30 32  0  0  0  0  0  0  0  0999 V2000
    1.1026   -1.3235   -0.7370 C   0  0  0  0  0
    1.4850   -2.6535   -0.6555 C   0  0  0  0  0
    0.6229   -3.5914   -0.0912 C   0  0  0  0  0
   -0.6329   -3.2041    0.3463 C   0  0  0  0  0
   -1.0401   -1.8627    0.2345 C   0  0  0  0  0
   -0.1508   -0.9009   -0.2770 C   0  0  0  0  0
   -0.4744    0.5411   -0.3617 C   0  0  0  0  0
   -1.6140    0.9985   -0.7877 N   0  0  0  0  0
   -2.7210    0.1383   -1.1853 C   0  0  0  0  0
   -3.2421   -0.6917   -0.0248 C   0  0  0  0  0
   -2.3555   -1.5327    0.6982 N   0  0  0  0  0
    1.7906   -0.5774   -1.1548 H   0  0  0  0  0
    2.4688   -2.9626   -1.0240 H   0  0  0  0  0
    0.9351   -4.6369    0.0054 H   0  0  0  0  0
   -1.3034   -3.9563    0.7831 H   0  0  0  0  0
    0.5521    1.5266    0.0544 C   0  0  0  0  0
   -3.5130    0.8154   -1.5618 H   0  0  0  0  0
   -2.7579   -2.1802    1.3441 H   0  0  0  0  0
   -4.3987   -0.6867    0.3644 O   0  0  0  0  0
    1.5064    1.1811    1.0178 C   0  0  0  0  0
    0.5606    2.8216   -0.4743 C   0  0  0  0  0
    2.4521    2.1080    1.4376 C   0  0  0  0  0
    2.4526    3.3946    0.9093 C   0  0  0  0  0
    1.5046    3.7484   -0.0436 C   0  0  0  0  0
   -2.4379   -0.5251   -2.0297 H   0  0  0  0  0
    1.5102    0.1720    1.4462 H   0  0  0  0  0
   -0.1861    3.1215   -1.2188 H   0  0  0  0  0
    3.1964    1.8269    2.1900 H   0  0  0  0  0
    3.1926    4.1272    1.2477 H   0  0  0  0  0
    1.4951    4.7647   -0.4522 H   0  0  0  0  0
  1  2  1  0  0  0
  6  1  2  0  0  0
  1 12  1  0  0  0
  2  3  2  0  0  0
  2 13  1  0  0  0
  3  4  1  0  0  0
  3 14  1  0  0  0
  4  5  2  0  0  0
  4 15  1  0  0  0
  5  6  1  0  0  0
 11  5  1  0  0  0
  6  7  1  0  0  0
  7  8  2  0  0  0
  7 16  1  0  0  0
  8  9  1  0  0  0
  9 10  1  0  0  0
  9 17  1  0  0  0
  9 25  1  0  0  0
 10 11  1  0  0  0
 10 19  2  0  0  0
 11 18  1  0  0  0
 16 20  2  0  0  0
 16 21  1  0  0  0
 20 22  1  0  0  0
 20 26  1  0  0  0
 24 21  2  0  0  0
 21 27  1  0  0  0
 22 23  2  0  0  0
 22 28  1  0  0  0
 23 24  1  0  0  0
 23 29  1  0  0  0
 24 30  1  0  0  0
M  END
