Heptan-1-amine
 OpenBabel01150813363D

 25 24  0  0  0  0  0  0  0  0999 V2000
    4.2172    0.0435   -0.0343 C   0  0  0  0  0
    2.8888    0.7655   -0.0474 C   0  0  0  0  0
    1.7239   -0.2111   -0.0254 C   0  0  0  0  0
    0.3896    0.5170   -0.0363 C   0  0  0  0  0
   -0.7738   -0.4612   -0.0155 C   0  0  0  0  0
   -2.1079    0.2683   -0.0239 C   0  0  0  0  0
   -3.2662   -0.7229   -0.0027 C   0  0  0  0  0
   -4.5649   -0.0178   -0.0770 N   0  0  0  0  0
    4.3284   -0.6158   -0.9054 H   0  0  0  0  0
    4.3303   -0.5805    0.8623 H   0  0  0  0  0
    5.0558    0.7512   -0.0493 H   0  0  0  0  0
    2.8195    1.4140   -0.9435 H   0  0  0  0  0
    2.8221    1.4512    0.8207 H   0  0  0  0  0
    1.7938   -0.8617    0.8697 H   0  0  0  0  0
    1.7893   -0.8957   -0.8950 H   0  0  0  0  0
    0.3207    1.1677   -0.9314 H   0  0  0  0  0
    0.3248    1.2014    0.8336 H   0  0  0  0  0
   -0.7026   -1.1143    0.8778 H   0  0  0  0  0
   -0.7096   -1.1432   -0.8873 H   0  0  0  0  0
   -2.1749    0.9206   -0.9180 H   0  0  0  0  0
   -2.1666    0.9519    0.8479 H   0  0  0  0  0
   -3.1827   -1.3783    0.8924 H   0  0  0  0  0
   -3.2089   -1.3968   -0.8812 H   0  0  0  0  0
   -4.6414    0.6309    0.6788 H   0  0  0  0  0
   -5.3049   -0.6840   -0.0095 H   0  0  0  0  0
  1  2  1  0  0  0
  1  9  1  0  0  0
  1 10  1  0  0  0
  1 11  1  0  0  0
  2  3  1  0  0  0
  2 12  1  0  0  0
  2 13  1  0  0  0
  3  4  1  0  0  0
  3 14  1  0  0  0
  3 15  1  0  0  0
  4  5  1  0  0  0
  4 16  1  0  0  0
  4 17  1  0  0  0
  5  6  1  0  0  0
  5 18  1  0  0  0
  5 19  1  0  0  0
  6  7  1  0  0  0
  6 20  1  0  0  0
  6 21  1  0  0  0
  7  8  1  0  0  0
  7 22  1  0  0  0
  7 23  1  0  0  0
  8 24  1  0  0  0
  8 25  1  0  0  0
M  END
