2,2,2-Trichloroacetic acid
 OpenBabel01150813363D

  8  7  0  0  0  0  0  0  0  0999 V2000
    0.8067   -0.3821   -0.0166 C   0  0  0  0  0
   -0.4039    0.5078    0.1441 C   0  0  0  0  0
   -0.4554    1.6239    0.6171 O   0  0  0  0  0
    2.2589    0.4038    0.5727 Cl  0  0  0  0  0
    0.5809   -1.8762    0.8831 Cl  0  0  0  0  0
   -1.5503   -0.0464   -0.3065 O   0  0  0  0  0
    1.0428   -0.7833   -1.7123 Cl  0  0  0  0  0
   -2.2798    0.5525   -0.1817 H   0  0  0  0  0
  1  2  1  0  0  0
  1  4  1  0  0  0
  1  5  1  0  0  0
  1  7  1  0  0  0
  2  3  2  0  0  0
  2  6  1  0  0  0
  6  8  1  0  0  0
M  END
