2-Hydroxypropane-1,2,3-tricarboxylic acid
 OpenBabel01150813363D

 21 20  0  0  0  0  0  0  0  0999 V2000
    2.0389    0.2154    0.9918 H   0  0  0  0  0
    1.6203    0.3374   -0.0291 C   0  0  0  0  0
    2.0078    1.3108   -0.3977 H   0  0  0  0  0
    0.0757    0.3848    0.0623 C   0  0  0  0  0
   -0.5488    0.3499   -1.2075 O   0  0  0  0  0
    0.0076    0.8132   -1.8206 H   0  0  0  0  0
   -0.3087    1.7038    0.7944 C   0  0  0  0  0
    0.3148    2.2272    1.6942 O   0  0  0  0  0
   -1.3939    2.4254    0.4652 O   0  0  0  0  0
   -1.9506    1.9497   -0.1408 H   0  0  0  0  0
   -0.4438   -0.8229    0.8735 C   0  0  0  0  0
   -0.3030   -0.6256    1.9563 H   0  0  0  0  0
    0.1756   -1.7167    0.6442 H   0  0  0  0  0
   -1.8887   -1.1833    0.6238 C   0  0  0  0  0
   -2.3376   -2.2287    0.1960 O   0  0  0  0  0
   -2.8028   -0.2388    0.9550 O   0  0  0  0  0
   -3.6816   -0.5619    0.7819 H   0  0  0  0  0
    2.1327   -0.7774   -0.9098 C   0  0  0  0  0
    2.4736   -1.9008   -0.5938 O   0  0  0  0  0
    2.2456   -0.4575   -2.2212 O   0  0  0  0  0
    2.5668   -1.2038   -2.7180 H   0  0  0  0  0
  1  2  1  0  0  0
  2  3  1  0  0  0
  2  4  1  0  0  0
  2 18  1  0  0  0
  4  5  1  0  0  0
  4  7  1  0  0  0
  4 11  1  0  0  0
  5  6  1  0  0  0
  7  8  2  0  0  0
  7  9  1  0  0  0
  9 10  1  0  0  0
 11 12  1  0  0  0
 11 13  1  0  0  0
 11 14  1  0  0  0
 14 15  2  0  0  0
 14 16  1  0  0  0
 16 17  1  0  0  0
 18 19  2  0  0  0
 18 20  1  0  0  0
 20 21  1  0  0  0
M  END
