(Z)-Butenedioic acid
 OpenBabel01150813363D

 12 11  0  0  0  0  0  0  0  0999 V2000
    1.1287   -0.2979   -0.0710 C   0  0  0  0  0
    0.2551   -0.3949   -1.0712 C   0  0  0  0  0
   -1.1711    0.0033   -0.9895 C   0  0  0  0  0
   -2.0393   -0.9720   -1.3451 O   0  0  0  0  0
   -1.6480    1.0813   -0.6877 O   0  0  0  0  0
   -2.9346   -0.6601   -1.2551 H   0  0  0  0  0
    0.8013    0.1830    1.2931 C   0  0  0  0  0
    0.5683   -0.7864   -2.0485 H   0  0  0  0  0
   -0.0386   -0.2332    2.0690 O   0  0  0  0  0
    1.5863    1.1966    1.7263 O   0  0  0  0  0
    1.3146    1.4701    2.5970 H   0  0  0  0  0
    2.1774   -0.5898   -0.2173 H   0  0  0  0  0
  1  2  2  0  0  0
  1  7  1  0  0  0
  1 12  1  0  0  0
  2  3  1  0  0  0
  2  8  1  0  0  0
  3  4  1  0  0  0
  3  5  2  0  0  0
  4  6  1  0  0  0
  7 10  1  0  0  0
  9  7  2  0  0  0
 10 11  1  0  0  0
M  END
