(3S,4R,5R)-1,3,4,5,6-Pentahydroxyhexan-2-one
 OpenBabel01150813363D

 24 23  0  0  0  0  0  0  0  0999 V2000
   -0.9375   -0.9867   -0.1572 C   0  0  0  0  0
   -2.0821   -0.4099    0.6855 C   0  0  0  0  0
   -1.7103   -0.0568    2.1205 C   0  0  0  0  0
   -1.3739   -1.8580   -1.1651 O   0  0  0  0  0
   -0.3257   -1.6693    0.4796 H   0  0  0  0  0
   -0.0623    0.1882   -0.7102 C   0  0  0  0  0
   -3.2056   -0.2672    0.2467 O   0  0  0  0  0
   -2.4853    0.9540    2.6940 O   0  0  0  0  0
   -0.6825    0.3484    2.1755 H   0  0  0  0  0
   -1.7446   -0.9802    2.7327 H   0  0  0  0  0
    1.4555   -0.1127   -0.5071 C   0  0  0  0  0
   -0.3286    1.1419   -0.1954 H   0  0  0  0  0
   -0.3650    0.4892   -2.0466 O   0  0  0  0  0
    1.7138   -1.1086   -0.9380 H   0  0  0  0  0
    2.3158    1.0039   -1.1472 C   0  0  0  0  0
    1.7475   -0.3003    0.8563 O   0  0  0  0  0
    3.6584    0.9667   -0.7554 O   0  0  0  0  0
    1.9914    2.0097   -0.8238 H   0  0  0  0  0
    1.7757    0.5569    1.2651 H   0  0  0  0  0
   -3.4001    0.7238    2.5821 H   0  0  0  0  0
   -0.0985   -0.2522   -2.5787 H   0  0  0  0  0
   -2.0738   -1.4293   -1.6460 H   0  0  0  0  0
    2.2340    0.9591   -2.2503 H   0  0  0  0  0
    3.9836    0.0895   -0.9171 H   0  0  0  0  0
  1  2  1  0  0  0
  1  4  1  0  0  0
  1  5  1  0  0  0
  1  6  1  0  0  0
  2  3  1  0  0  0
  2  7  2  0  0  0
  3  8  1  0  0  0
  3  9  1  0  0  0
  3 10  1  0  0  0
  4 22  1  0  0  0
  6 11  1  0  0  0
  6 12  1  0  0  0
  6 13  1  0  0  0
  8 20  1  0  0  0
 11 14  1  0  0  0
 11 15  1  0  0  0
 11 16  1  0  0  0
 13 21  1  0  0  0
 15 17  1  0  0  0
 15 18  1  0  0  0
 15 23  1  0  0  0
 16 19  1  0  0  0
 17 24  1  0  0  0
M  END
