(3S,4S,5R)-1,3,4,5,6-Pentahydroxyhexan-2-one
 OpenBabel01150813363D

 24 23  0  0  0  0  0  0  0  0999 V2000
   -0.8372   -0.5193   -0.5800 C   0  0  0  0  0
   -2.2286   -0.1356   -0.0453 C   0  0  0  0  0
   -2.7378   -0.9627    1.1253 C   0  0  0  0  0
   -0.8288   -0.5842   -1.9827 O   0  0  0  0  0
   -0.5840   -1.5679   -0.2973 H   0  0  0  0  0
    0.2474    0.4685   -0.0458 C   0  0  0  0  0
   -2.8637    0.7773   -0.5343 O   0  0  0  0  0
   -4.1006   -0.8313    1.4005 O   0  0  0  0  0
   -2.1330   -0.7176    2.0226 H   0  0  0  0  0
   -2.6245   -2.0429    0.9210 H   0  0  0  0  0
    1.6741   -0.0067   -0.4549 C   0  0  0  0  0
    0.1284    0.6716    1.3392 O   0  0  0  0  0
    0.0607    1.4923   -0.4476 H   0  0  0  0  0
    1.6338   -0.4872   -1.4612 H   0  0  0  0  0
    2.6385    1.2024   -0.4691 C   0  0  0  0  0
    2.1126   -1.0664    0.3619 O   0  0  0  0  0
    3.9799    0.8379   -0.6277 O   0  0  0  0  0
    2.6406    1.7418    0.4958 H   0  0  0  0  0
    2.3309    1.9162   -1.2576 H   0  0  0  0  0
    4.0479    0.3231   -1.4226 H   0  0  0  0  0
    2.6016   -0.6946    1.0867 H   0  0  0  0  0
   -4.3114    0.0946    1.4203 H   0  0  0  0  0
   -1.1313    0.2531   -2.3157 H   0  0  0  0  0
    0.2849   -0.1622    1.7686 H   0  0  0  0  0
  1  2  1  0  0  0
  1  4  1  0  0  0
  1  5  1  0  0  0
  1  6  1  0  0  0
  2  3  1  0  0  0
  2  7  2  0  0  0
  3  8  1  0  0  0
  3  9  1  0  0  0
  3 10  1  0  0  0
  4 23  1  0  0  0
  6 11  1  0  0  0
  6 12  1  0  0  0
  6 13  1  0  0  0
  8 22  1  0  0  0
 11 14  1  0  0  0
 11 15  1  0  0  0
 11 16  1  0  0  0
 12 24  1  0  0  0
 15 17  1  0  0  0
 15 18  1  0  0  0
 15 19  1  0  0  0
 16 21  1  0  0  0
 17 20  1  0  0  0
M  END
