(1S,2S)-1-Ethyl-2-methylcyclopentane
 OpenBabel01150813363D

 24 24  0  0  0  0  0  0  0  0999 V2000
    1.2736    1.8798    0.2811 C   0  0  0  0  0
    1.8938    0.4923    0.3490 C   0  0  0  0  0
    0.7275   -0.4970    0.2564 C   0  0  0  0  0
   -0.4325    0.2544   -0.4344 C   0  0  0  0  0
    0.0009    1.7248   -0.5411 C   0  0  0  0  0
    1.1206   -1.7576   -0.4891 C   0  0  0  0  0
   -1.7530    0.1231    0.3226 C   0  0  0  0  0
   -2.3143   -1.2806    0.2804 C   0  0  0  0  0
    1.9640    2.6213   -0.1593 H   0  0  0  0  0
    1.0402    2.2534    1.2962 H   0  0  0  0  0
    2.4818    0.3454    1.2727 H   0  0  0  0  0
    2.6062    0.3417   -0.4855 H   0  0  0  0  0
    0.4158   -0.7847    1.2902 H   0  0  0  0  0
   -0.5840   -0.1577   -1.4614 H   0  0  0  0  0
   -0.7880    2.4192   -0.1959 H   0  0  0  0  0
    0.1858    1.9914   -1.5987 H   0  0  0  0  0
    1.9532   -2.2691    0.0107 H   0  0  0  0  0
    1.4374   -1.5456   -1.5196 H   0  0  0  0  0
    0.2805   -2.4637   -0.5435 H   0  0  0  0  0
   -2.4921    0.8246   -0.1151 H   0  0  0  0  0
   -1.6219    0.4489    1.3741 H   0  0  0  0  0
   -3.2893   -1.3326    0.7816 H   0  0  0  0  0
   -1.6512   -2.0010    0.7796 H   0  0  0  0  0
   -2.4550   -1.6309   -0.7510 H   0  0  0  0  0
  1  2  1  0  0  0
  5  1  1  0  0  0
  1  9  1  0  0  0
  1 10  1  0  0  0
  2  3  1  0  0  0
  2 11  1  0  0  0
  2 12  1  0  0  0
  3  4  1  0  0  0
  3  6  1  0  0  0
  3 13  1  0  0  0
  4  5  1  0  0  0
  4  7  1  0  0  0
  4 14  1  0  0  0
  5 15  1  0  0  0
  5 16  1  0  0  0
  6 17  1  0  0  0
  6 18  1  0  0  0
  6 19  1  0  0  0
  7  8  1  0  0  0
  7 20  1  0  0  0
  7 21  1  0  0  0
  8 22  1  0  0  0
  8 23  1  0  0  0
  8 24  1  0  0  0
M  END
