2-Methylheptane
 OpenBabel01150813363D

 26 25  0  0  0  0  0  0  0  0999 V2000
    4.4914   -0.2207    2.1082 H   0  0  0  0  0
    3.9155   -0.0969    1.1823 C   0  0  0  0  0
    4.1330    0.9064    0.7921 H   0  0  0  0  0
    4.3052   -0.8206    0.4540 H   0  0  0  0  0
    2.4360   -0.2922    1.4253 C   0  0  0  0  0
    2.2525   -1.2981    1.8528 H   0  0  0  0  0
    2.0800    0.4250    2.1915 H   0  0  0  0  0
    1.6337   -0.1202    0.1454 C   0  0  0  0  0
    1.8205    0.8847   -0.2843 H   0  0  0  0  0
    1.9851   -0.8401   -0.6209 H   0  0  0  0  0
    0.1478   -0.3129    0.3934 C   0  0  0  0  0
   -0.0374   -1.3111    0.8381 H   0  0  0  0  0
   -0.2228    0.4208    1.1462 H   0  0  0  0  0
   -0.6581   -0.1561   -0.8868 C   0  0  0  0  0
   -0.3821    0.7881   -1.3989 H   0  0  0  0  0
   -0.4016   -0.9673   -1.5970 H   0  0  0  0  0
   -2.1618   -0.1688   -0.6058 C   0  0  0  0  0
   -2.4013   -1.0915   -0.0219 H   0  0  0  0  0
   -2.5612    1.0427    0.2216 C   0  0  0  0  0
   -1.9042    1.1375    1.1026 H   0  0  0  0  0
   -2.4745    1.9740   -0.3537 H   0  0  0  0  0
   -3.5966    0.9671    0.5750 H   0  0  0  0  0
   -2.9439   -0.2053   -1.9075 C   0  0  0  0  0
   -2.7210    0.6658   -2.5386 H   0  0  0  0  0
   -2.7086   -1.1036   -2.4930 H   0  0  0  0  0
   -4.0256   -0.2066   -1.7202 H   0  0  0  0  0
  1  2  1  0  0  0
  2  3  1  0  0  0
  2  4  1  0  0  0
  2  5  1  0  0  0
  5  6  1  0  0  0
  5  7  1  0  0  0
  5  8  1  0  0  0
  8  9  1  0  0  0
  8 10  1  0  0  0
  8 11  1  0  0  0
 11 12  1  0  0  0
 11 13  1  0  0  0
 11 14  1  0  0  0
 14 15  1  0  0  0
 14 16  1  0  0  0
 14 17  1  0  0  0
 17 18  1  0  0  0
 17 19  1  0  0  0
 17 23  1  0  0  0
 19 20  1  0  0  0
 19 21  1  0  0  0
 19 22  1  0  0  0
 23 24  1  0  0  0
 23 25  1  0  0  0
 23 26  1  0  0  0
M  END
