3-Methylpentane
 OpenBabel01150813363D

 20 19  0  0  0  0  0  0  0  0999 V2000
    1.9240    0.1045    0.9829 H   0  0  0  0  0
    1.4858   -0.1254   -0.0030 C   0  0  0  0  0
    1.8447    0.6373   -0.7069 H   0  0  0  0  0
    1.8844   -1.0932   -0.3324 H   0  0  0  0  0
   -0.0326   -0.1411    0.0879 C   0  0  0  0  0
   -0.3435   -1.0244    0.6994 H   0  0  0  0  0
   -0.5291    1.1251    0.7921 C   0  0  0  0  0
   -0.1719    2.0189    0.2426 H   0  0  0  0  0
   -1.6355    1.1713    0.7516 H   0  0  0  0  0
   -0.0664    1.1794    2.2316 C   0  0  0  0  0
   -0.5485    0.4054    2.8428 H   0  0  0  0  0
    1.0226    1.0143    2.2956 H   0  0  0  0  0
   -0.2885    2.1500    2.6909 H   0  0  0  0  0
   -0.6736   -0.2598   -1.2957 C   0  0  0  0  0
   -1.7555   -0.0275   -1.2228 H   0  0  0  0  0
   -0.2502    0.5086   -1.9732 H   0  0  0  0  0
   -0.5002   -1.6358   -1.8988 C   0  0  0  0  0
    0.5592   -1.8904   -2.0393 H   0  0  0  0  0
   -0.9405   -2.4161   -1.2636 H   0  0  0  0  0
   -0.9845   -1.7010   -2.8815 H   0  0  0  0  0
  1  2  1  0  0  0
  2  3  1  0  0  0
  2  4  1  0  0  0
  2  5  1  0  0  0
  5  6  1  0  0  0
  5  7  1  0  0  0
  5 14  1  0  0  0
  7  8  1  0  0  0
  7  9  1  0  0  0
  7 10  1  0  0  0
 10 11  1  0  0  0
 10 12  1  0  0  0
 10 13  1  0  0  0
 14 15  1  0  0  0
 14 16  1  0  0  0
 14 17  1  0  0  0
 17 18  1  0  0  0
 17 19  1  0  0  0
 17 20  1  0  0  0
M  END
