Cyclooctane
 OpenBabel01150813363D

 24 24  0  0  0  0  0  0  0  0999 V2000
    1.9576    0.8607   -1.2886 H   0  0  0  0  0
    1.3865   -0.0886   -1.3350 C   0  0  0  0  0
    1.8671   -0.6822   -2.1385 H   0  0  0  0  0
    1.5251   -0.8483   -0.0215 C   0  0  0  0  0
    0.8917   -1.7622   -0.0610 H   0  0  0  0  0
    2.5683   -1.2049    0.0766 H   0  0  0  0  0
    1.1510   -0.0176    1.2027 C   0  0  0  0  0
    1.9414   -0.1048    1.9730 H   0  0  0  0  0
    1.1200    1.0619    0.9318 H   0  0  0  0  0
   -0.1824   -0.4188    1.8225 C   0  0  0  0  0
   -0.0471   -1.3546    2.4016 H   0  0  0  0  0
   -0.4864    0.3490    2.5613 H   0  0  0  0  0
   -1.2996   -0.6375    0.8150 C   0  0  0  0  0
   -0.9592   -1.3792    0.0508 H   0  0  0  0  0
   -2.1625   -1.1021    1.3307 H   0  0  0  0  0
   -1.7696    0.6220    0.1051 C   0  0  0  0  0
   -2.6930    0.3802   -0.4590 H   0  0  0  0  0
   -2.0662    1.3863    0.8507 H   0  0  0  0  0
   -0.7445    1.2238   -0.8488 C   0  0  0  0  0
    0.0179    1.7847   -0.2622 H   0  0  0  0  0
   -1.2478    1.9828   -1.4784 H   0  0  0  0  0
   -0.0579    0.1878   -1.7339 C   0  0  0  0  0
   -0.6314   -0.7654   -1.7077 H   0  0  0  0  0
   -0.0789    0.5269   -2.7872 H   0  0  0  0  0
  1  2  1  0  0  0
  2  3  1  0  0  0
  2  4  1  0  0  0
  2 22  1  0  0  0
  4  5  1  0  0  0
  4  6  1  0  0  0
  4  7  1  0  0  0
  7  8  1  0  0  0
  7  9  1  0  0  0
  7 10  1  0  0  0
 10 11  1  0  0  0
 10 12  1  0  0  0
 10 13  1  0  0  0
 13 14  1  0  0  0
 13 15  1  0  0  0
 13 16  1  0  0  0
 16 17  1  0  0  0
 16 18  1  0  0  0
 16 19  1  0  0  0
 19 20  1  0  0  0
 19 21  1  0  0  0
 19 22  1  0  0  0
 22 23  1  0  0  0
 22 24  1  0  0  0
M  END
