Cyclopentane
 OpenBabel01150813363D

 15 15  0  0  0  0  0  0  0  0999 V2000
   -0.0158    1.1966    1.6303 H   0  0  0  0  0
   -0.4838    1.0045    0.6464 C   0  0  0  0  0
   -1.2609    1.7808    0.5293 H   0  0  0  0  0
    0.5565    1.0664   -0.4664 C   0  0  0  0  0
    0.1278    1.5277   -1.3759 H   0  0  0  0  0
    1.4137    1.7051   -0.1870 H   0  0  0  0  0
    0.9884   -0.3718   -0.7441 C   0  0  0  0  0
    1.0103   -0.5764   -1.8301 H   0  0  0  0  0
    2.0208   -0.5514   -0.3913 H   0  0  0  0  0
    0.0021   -1.2909   -0.0250 C   0  0  0  0  0
   -0.4406   -2.0317   -0.7153 H   0  0  0  0  0
    0.5176   -1.8850    0.7526 H   0  0  0  0  0
   -1.0708   -0.4010    0.5955 C   0  0  0  0  0
   -1.9928   -0.4162   -0.0158 H   0  0  0  0  0
   -1.3726   -0.7567    1.5969 H   0  0  0  0  0
  1  2  1  0  0  0
  2  3  1  0  0  0
  2  4  1  0  0  0
  2 13  1  0  0  0
  4  5  1  0  0  0
  4  6  1  0  0  0
  4  7  1  0  0  0
  7  8  1  0  0  0
  7  9  1  0  0  0
  7 10  1  0  0  0
 10 11  1  0  0  0
 10 12  1  0  0  0
 10 13  1  0  0  0
 13 14  1  0  0  0
 13 15  1  0  0  0
M  END
