Undecane
 OpenBabel01150813363D

 35 34  0  0  0  0  0  0  0  0999 V2000
    6.5535    0.7107    2.8494 H   0  0  0  0  0
    5.9376    0.6640    1.9424 C   0  0  0  0  0
    6.1054    1.5942    1.3833 H   0  0  0  0  0
    6.3224   -0.1596    1.3263 H   0  0  0  0  0
    4.4764    0.4720    2.2801 C   0  0  0  0  0
    4.3438   -0.4544    2.8736 H   0  0  0  0  0
    4.1276    1.2958    2.9343 H   0  0  0  0  0
    3.6186    0.4095    1.0264 C   0  0  0  0  0
    3.7506    1.3362    0.4322 H   0  0  0  0  0
    3.9673   -0.4144    0.3715 H   0  0  0  0  0
    2.1502    0.2157    1.3681 C   0  0  0  0  0
    2.0189   -0.7119    1.9610 H   0  0  0  0  0
    1.8024    1.0389    2.0244 H   0  0  0  0  0
    1.2939    0.1551    0.1137 C   0  0  0  0  0
    1.4248    1.0828   -0.4793 H   0  0  0  0  0
    1.6418   -0.6679   -0.5428 H   0  0  0  0  0
   -0.1745   -0.0395    0.4556 C   0  0  0  0  0
   -0.3054   -0.9679    1.0475 H   0  0  0  0  0
   -0.5224    0.7828    1.1129 H   0  0  0  0  0
   -1.0310   -0.0989   -0.7988 C   0  0  0  0  0
   -0.9001    0.8292   -1.3910 H   0  0  0  0  0
   -0.6832   -0.9214   -1.4560 H   0  0  0  0  0
   -2.4993   -0.2937   -0.4569 C   0  0  0  0  0
   -2.6302   -1.2223    0.1347 H   0  0  0  0  0
   -2.8473    0.5284    0.2008 H   0  0  0  0  0
   -3.3559   -0.3527   -1.7111 C   0  0  0  0  0
   -3.2246    0.5749   -2.3040 H   0  0  0  0  0
   -3.0096   -1.1757   -2.3683 H   0  0  0  0  0
   -4.8251   -0.5457   -1.3711 C   0  0  0  0  0
   -4.9559   -1.4730   -0.7785 H   0  0  0  0  0
   -5.1712    0.2772   -0.7144 H   0  0  0  0  0
   -5.6787   -0.6052   -2.6176 C   0  0  0  0  0
   -5.5969    0.3164   -3.2092 H   0  0  0  0  0
   -5.3848   -1.4379   -3.2705 H   0  0  0  0  0
   -6.7388   -0.7421   -2.3688 H   0  0  0  0  0
  1  2  1  0  0  0
  2  3  1  0  0  0
  2  4  1  0  0  0
  2  5  1  0  0  0
  5  6  1  0  0  0
  5  7  1  0  0  0
  5  8  1  0  0  0
  8  9  1  0  0  0
  8 10  1  0  0  0
  8 11  1  0  0  0
 11 12  1  0  0  0
 11 13  1  0  0  0
 11 14  1  0  0  0
 14 15  1  0  0  0
 14 16  1  0  0  0
 14 17  1  0  0  0
 17 18  1  0  0  0
 17 19  1  0  0  0
 17 20  1  0  0  0
 20 21  1  0  0  0
 20 22  1  0  0  0
 20 23  1  0  0  0
 23 24  1  0  0  0
 23 25  1  0  0  0
 23 26  1  0  0  0
 26 27  1  0  0  0
 26 28  1  0  0  0
 26 29  1  0  0  0
 29 30  1  0  0  0
 29 31  1  0  0  0
 29 32  1  0  0  0
 32 33  1  0  0  0
 32 34  1  0  0  0
 32 35  1  0  0  0
M  END
