2-Methylbutan-2-ol
 OpenBabel01150813363D

 18 17  0  0  0  0  0  0  0  0999 V2000
    1.6481   -0.7059    0.7817 C   0  0  0  0  0
    0.4250    0.1142    0.3555 C   0  0  0  0  0
   -0.6735   -0.8419   -0.1678 C   0  0  0  0  0
   -1.9729   -0.1413   -0.4992 C   0  0  0  0  0
    0.8348    1.1183   -0.7305 C   0  0  0  0  0
   -0.0042    0.8082    1.5219 O   0  0  0  0  0
    2.4490   -0.0610    1.1669 H   0  0  0  0  0
    2.0528   -1.2685   -0.0693 H   0  0  0  0  0
    1.3986   -1.4263    1.5717 H   0  0  0  0  0
   -0.8593   -1.6261    0.5937 H   0  0  0  0  0
   -0.2903   -1.3738   -1.0603 H   0  0  0  0  0
   -2.2845    0.5313    0.3170 H   0  0  0  0  0
   -2.7839   -0.8620   -0.6605 H   0  0  0  0  0
   -1.8923    0.4692   -1.4087 H   0  0  0  0  0
    1.6399    1.7773   -0.3798 H   0  0  0  0  0
   -0.0046    1.7591   -1.0328 H   0  0  0  0  0
    1.1957    0.5989   -1.6271 H   0  0  0  0  0
   -0.8787    1.1303    1.3276 H   0  0  0  0  0
  1  2  1  0  0  0
  1  7  1  0  0  0
  1  8  1  0  0  0
  1  9  1  0  0  0
  2  3  1  0  0  0
  2  5  1  0  0  0
  2  6  1  0  0  0
  3  4  1  0  0  0
  3 10  1  0  0  0
  3 11  1  0  0  0
  4 12  1  0  0  0
  4 13  1  0  0  0
  4 14  1  0  0  0
  5 15  1  0  0  0
  5 16  1  0  0  0
  5 17  1  0  0  0
  6 18  1  0  0  0
M  END
