2-Thioethanol
 OpenBabel01150813363D

 10  9  0  0  0  0  0  0  0  0999 V2000
    0.6567    0.1588   -0.3249 C   0  0  0  0  0
    1.8730   -1.0847    0.1868 S   0  0  0  0  0
   -0.7520   -0.0959    0.2129 C   0  0  0  0  0
   -1.6611    0.8949   -0.1803 O   0  0  0  0  0
    0.6613    0.1278   -1.4324 H   0  0  0  0  0
    0.9901    1.1770   -0.0515 H   0  0  0  0  0
    1.8684   -0.8916    1.4802 H   0  0  0  0  0
   -0.7831   -0.0343    1.3154 H   0  0  0  0  0
   -1.1109   -1.1018   -0.0815 H   0  0  0  0  0
   -1.7425    0.8499   -1.1248 H   0  0  0  0  0
  1  2  1  0  0  0
  1  3  1  0  0  0
  1  5  1  0  0  0
  1  6  1  0  0  0
  2  7  1  0  0  0
  3  4  1  0  0  0
  3  8  1  0  0  0
  3  9  1  0  0  0
  4 10  1  0  0  0
M  END
