(2R,3R,4R,5S)-Hexane-1,2,3,4,5,6-hexol
 OpenBabel01150813363D

 26 25  0  0  0  0  0  0  0  0999 V2000
    3.1681   -0.3031   -0.2981 C   0  0  0  0  0
    1.9372    0.6373   -0.2415 C   0  0  0  0  0
    0.6677   -0.1430    0.1973 C   0  0  0  0  0
   -0.6532    0.5806   -0.2099 C   0  0  0  0  0
   -1.8578   -0.3717    0.0863 C   0  0  0  0  0
   -3.2143    0.3253   -0.1612 C   0  0  0  0  0
    3.0089   -1.1421   -1.4185 O   0  0  0  0  0
    0.7482   -0.3654    1.5926 O   0  0  0  0  0
   -1.8383   -1.5080   -0.7568 O   0  0  0  0  0
   -4.2887   -0.3931    0.3772 O   0  0  0  0  0
    3.2518   -0.9098    0.6252 H   0  0  0  0  0
    4.0985    0.2913   -0.3904 H   0  0  0  0  0
    0.6737   -1.1409   -0.3201 H   0  0  0  0  0
   -0.8242    1.8354    0.3891 O   0  0  0  0  0
   -1.7932   -0.7234    1.1521 H   0  0  0  0  0
   -3.3658    0.5207   -1.2408 H   0  0  0  0  0
   -3.2678    1.2900    0.3736 H   0  0  0  0  0
    3.8132   -1.6358   -1.5004 H   0  0  0  0  0
   -0.0932   -0.7307    1.8513 H   0  0  0  0  0
   -0.9379   -1.8172   -0.7831 H   0  0  0  0  0
   -4.3451   -1.2169   -0.0908 H   0  0  0  0  0
    2.2141    1.7616    0.5531 O   0  0  0  0  0
    1.7543    1.0995   -1.2401 H   0  0  0  0  0
   -0.6274    0.8379   -1.2943 H   0  0  0  0  0
   -0.5912    1.7600    1.3064 H   0  0  0  0  0
    2.3624    1.4616    1.4417 H   0  0  0  0  0
  1  2  1  0  0  0
  1  7  1  0  0  0
  1 11  1  0  0  0
  1 12  1  0  0  0
  2  3  1  0  0  0
  2 22  1  0  0  0
  2 23  1  0  0  0
  3  4  1  0  0  0
  3  8  1  0  0  0
  3 13  1  0  0  0
  4  5  1  0  0  0
  4 14  1  0  0  0
  4 24  1  0  0  0
  5  6  1  0  0  0
  5  9  1  0  0  0
  5 15  1  0  0  0
  6 10  1  0  0  0
  6 16  1  0  0  0
  6 17  1  0  0  0
  7 18  1  0  0  0
  8 19  1  0  0  0
  9 20  1  0  0  0
 10 21  1  0  0  0
 14 25  1  0  0  0
 22 26  1  0  0  0
M  END
