(3S)-Octan-3-ol
 OpenBabel01150813363D

 27 26  0  0  0  0  0  0  0  0999 V2000
    4.8106   -0.1826    2.4567 H   0  0  0  0  0
    4.2540    0.0049    1.5297 C   0  0  0  0  0
    4.5052    1.0204    1.1957 H   0  0  0  0  0
    4.6363   -0.6908    0.7709 H   0  0  0  0  0
    2.7658   -0.1611    1.7395 C   0  0  0  0  0
    2.5474   -1.1832    2.1082 H   0  0  0  0  0
    2.4171    0.5232    2.5385 H   0  0  0  0  0
    1.9899    0.1031    0.4591 C   0  0  0  0  0
    2.2043    1.1275    0.0932 H   0  0  0  0  0
    2.3419   -0.5775   -0.3422 H   0  0  0  0  0
    0.4945   -0.0705    0.6720 C   0  0  0  0  0
    0.2812   -1.0974    1.0322 H   0  0  0  0  0
    0.1455    0.6064    1.4772 H   0  0  0  0  0
   -0.2767    0.2034   -0.6090 C   0  0  0  0  0
   -0.0729    1.2347   -0.9616 H   0  0  0  0  0
    0.0865   -0.4673   -1.4139 H   0  0  0  0  0
   -1.7867   -0.0054   -0.4303 C   0  0  0  0  0
   -1.9758   -0.9602    0.1216 H   0  0  0  0  0
   -2.2719    1.0602    0.3685 O   0  0  0  0  0
   -3.2183    1.0598    0.2612 H   0  0  0  0  0
   -2.4863   -0.0624   -1.8008 C   0  0  0  0  0
   -2.3201    0.8872   -2.3476 H   0  0  0  0  0
   -2.0174   -0.8519   -2.4194 H   0  0  0  0  0
   -3.9680   -0.3297   -1.6567 C   0  0  0  0  0
   -4.1645   -1.3384   -1.2700 H   0  0  0  0  0
   -4.4321    0.3842   -0.9559 H   0  0  0  0  0
   -4.4894   -0.2367   -2.6170 H   0  0  0  0  0
  1  2  1  0  0  0
  2  3  1  0  0  0
  2  4  1  0  0  0
  2  5  1  0  0  0
  5  6  1  0  0  0
  5  7  1  0  0  0
  5  8  1  0  0  0
  8  9  1  0  0  0
  8 10  1  0  0  0
  8 11  1  0  0  0
 11 12  1  0  0  0
 11 13  1  0  0  0
 11 14  1  0  0  0
 14 15  1  0  0  0
 14 16  1  0  0  0
 14 17  1  0  0  0
 17 18  1  0  0  0
 17 19  1  0  0  0
 17 21  1  0  0  0
 19 20  1  0  0  0
 21 22  1  0  0  0
 21 23  1  0  0  0
 21 24  1  0  0  0
 24 25  1  0  0  0
 24 26  1  0  0  0
 24 27  1  0  0  0
M  END
