Benzofuran
 OpenBabel01150813373D

 15 16  0  0  0  0  0  0  0  0999 V2000
    2.1045    0.1387    0.0163 C   0  0  0  0  0
    1.6504   -1.1878   -0.0027 C   0  0  0  0  0
    0.2972   -1.4961   -0.0161 C   0  0  0  0  0
   -0.6099   -0.4399   -0.0099 C   0  0  0  0  0
    1.2234    1.2117    0.0227 C   0  0  0  0  0
   -0.1324    0.8937    0.0095 C   0  0  0  0  0
   -2.0562   -0.3381   -0.0183 C   0  0  0  0  0
   -2.3440    0.9974   -0.0041 C   0  0  0  0  0
    3.1826    0.3310    0.0264 H   0  0  0  0  0
    2.3864   -1.9989   -0.0068 H   0  0  0  0  0
   -0.0525   -2.5324   -0.0311 H   0  0  0  0  0
    1.5723    2.2480    0.0374 H   0  0  0  0  0
   -2.7500   -1.1735   -0.0329 H   0  0  0  0  0
   -3.2719    1.5625   -0.0033 H   0  0  0  0  0
   -1.1999    1.7840    0.0129 O   0  0  0  0  0
  1  2  2  0  0  0
  1  5  1  0  0  0
  1  9  1  0  0  0
  2  3  1  0  0  0
  2 10  1  0  0  0
  3  4  2  0  0  0
  3 11  1  0  0  0
  6  4  1  0  0  0
  4  7  1  0  0  0
  5  6  2  0  0  0
  5 12  1  0  0  0
  6 15  1  0  0  0
  8  7  2  0  0  0
  7 13  1  0  0  0
  8 14  1  0  0  0
 15  8  1  0  0  0
M  END
