Cinnoline
 OpenBabel01150813373D

 16 17  0  0  0  0  0  0  0  0999 V2000
    2.1775    0.7734    0.0197 C   0  0  0  0  0
    2.0905   -0.6349    0.0293 C   0  0  0  0  0
    0.8695   -1.2633    0.0197 C   0  0  0  0  0
   -0.3148   -0.4918   -0.0000 C   0  0  0  0  0
    1.0432    1.5484    0.0006 C   0  0  0  0  0
   -0.2228    0.9143   -0.0095 C   0  0  0  0  0
   -2.6973   -0.2282   -0.0299 C   0  0  0  0  0
   -1.3973    1.6980   -0.0291 N   0  0  0  0  0
   -1.6221   -1.0680   -0.0110 C   0  0  0  0  0
    3.1663    1.2449    0.0278 H   0  0  0  0  0
    3.0134   -1.2248    0.0445 H   0  0  0  0  0
    0.7950   -2.3564    0.0270 H   0  0  0  0  0
    1.1046    2.6434   -0.0068 H   0  0  0  0  0
   -2.5297    1.1658   -0.0384 N   0  0  0  0  0
   -3.7401   -0.5636   -0.0396 H   0  0  0  0  0
   -1.7359   -2.1571   -0.0042 H   0  0  0  0  0
  1  2  2  0  0  0
  1  5  1  0  0  0
  1 10  1  0  0  0
  2  3  1  0  0  0
  2 11  1  0  0  0
  3  4  2  0  0  0
  3 12  1  0  0  0
  6  4  1  0  0  0
  4  9  1  0  0  0
  5  6  2  0  0  0
  5 13  1  0  0  0
  6  8  1  0  0  0
  9  7  2  0  0  0
 14  7  1  0  0  0
  7 15  1  0  0  0
  8 14  2  0  0  0
  9 16  1  0  0  0
M  END
