2-(2-Hydroxyethyl)isoindole-1,3-dione
 OpenBabel01150813373D

 23 24  0  0  0  0  0  0  0  0999 V2000
    3.5629    0.7030    0.2366 C   0  0  0  0  0
    3.5950   -0.6732    0.0645 C   0  0  0  0  0
    2.4240   -1.3961   -0.2044 C   0  0  0  0  0
    1.2389   -0.6962   -0.2908 C   0  0  0  0  0
    1.2063    0.7044   -0.1163 C   0  0  0  0  0
    2.3584    1.4154    0.1467 C   0  0  0  0  0
   -0.1995    1.1766   -0.2703 C   0  0  0  0  0
   -0.9849    0.0057   -0.6273 N   0  0  0  0  0
   -0.1446   -1.1814   -0.5638 C   0  0  0  0  0
   -0.6682    2.2892   -0.1652 O   0  0  0  0  0
   -0.5588   -2.3058   -0.7377 O   0  0  0  0  0
    4.4909    1.2466    0.4461 H   0  0  0  0  0
    4.5481   -1.2086    0.1388 H   0  0  0  0  0
    2.4496   -2.4828   -0.3415 H   0  0  0  0  0
    2.3335    2.5024    0.2812 H   0  0  0  0  0
   -2.4562   -0.0278   -0.5977 C   0  0  0  0  0
   -3.0295   -0.1583    0.8247 C   0  0  0  0  0
   -4.4294   -0.1385    0.8253 O   0  0  0  0  0
   -2.7872   -0.8739   -1.2325 H   0  0  0  0  0
   -2.8179    0.9010   -1.0839 H   0  0  0  0  0
   -2.6303    0.6284    1.4948 H   0  0  0  0  0
   -2.7975   -1.1388    1.2766 H   0  0  0  0  0
   -4.7034    0.7088    0.4961 H   0  0  0  0  0
  1  2  2  0  0  0
  6  1  1  0  0  0
  1 12  1  0  0  0
  2  3  1  0  0  0
  2 13  1  0  0  0
  3  4  2  0  0  0
  3 14  1  0  0  0
  4  5  1  0  0  0
  9  4  1  0  0  0
  5  6  2  0  0  0
  5  7  1  0  0  0
  6 15  1  0  0  0
  7  8  1  0  0  0
  7 10  2  0  0  0
  8  9  1  0  0  0
  8 16  1  0  0  0
  9 11  2  0  0  0
 16 17  1  0  0  0
 16 19  1  0  0  0
 16 20  1  0  0  0
 17 18  1  0  0  0
 17 21  1  0  0  0
 17 22  1  0  0  0
 18 23  1  0  0  0
M  END
