Isoindole-1,3-dione
 OpenBabel01150813373D

 16 17  0  0  0  0  0  0  0  0999 V2000
    2.1167    0.7120    0.1137 C   0  0  0  0  0
    2.1286   -0.6745    0.1186 C   0  0  0  0  0
    0.9352   -1.4094    0.0555 C   0  0  0  0  0
   -0.2499   -0.7092   -0.0115 C   0  0  0  0  0
   -0.2621    0.7048   -0.0166 C   0  0  0  0  0
    0.9108    1.4258    0.0454 C   0  0  0  0  0
   -1.6770    1.1695   -0.0955 C   0  0  0  0  0
   -2.4869   -0.0220   -0.1362 N   0  0  0  0  0
   -1.6565   -1.1989   -0.0870 C   0  0  0  0  0
   -2.1566    2.2824   -0.1251 O   0  0  0  0  0
   -2.1163   -2.3203   -0.1086 O   0  0  0  0  0
    3.0618    1.2644    0.1637 H   0  0  0  0  0
    3.0829   -1.2103    0.1725 H   0  0  0  0  0
    0.9458   -2.5048    0.0596 H   0  0  0  0  0
    0.9025    2.5212    0.0416 H   0  0  0  0  0
   -3.4792   -0.0307   -0.1902 H   0  0  0  0  0
  1  2  2  0  0  0
  6  1  1  0  0  0
  1 12  1  0  0  0
  2  3  1  0  0  0
  2 13  1  0  0  0
  3  4  2  0  0  0
  3 14  1  0  0  0
  4  5  1  0  0  0
  9  4  1  0  0  0
  5  6  2  0  0  0
  5  7  1  0  0  0
  6 15  1  0  0  0
  7  8  1  0  0  0
  7 10  2  0  0  0
  8  9  1  0  0  0
  8 16  1  0  0  0
  9 11  2  0  0  0
M  END
