Hexane-1-thiol
 OpenBabel01150813373D

 21 20  0  0  0  0  0  0  0  0999 V2000
    3.4072    0.4964   -0.0515 C   0  0  0  0  0
    2.1786   -0.3844   -0.0266 C   0  0  0  0  0
    0.9022    0.4416   -0.0168 C   0  0  0  0  0
   -0.3314   -0.4461    0.0079 C   0  0  0  0  0
   -1.6052    0.3860    0.0193 C   0  0  0  0  0
   -2.8326   -0.5043    0.0431 C   0  0  0  0  0
   -4.3230    0.5495    0.0608 S   0  0  0  0  0
    3.4279    1.1376   -0.9429 H   0  0  0  0  0
    3.4506    1.1563    0.8253 H   0  0  0  0  0
    2.2057   -1.0469    0.8614 H   0  0  0  0  0
    2.1817   -1.0629   -0.9029 H   0  0  0  0  0
    0.8747    1.1042   -0.9054 H   0  0  0  0  0
    0.8986    1.1205    0.8598 H   0  0  0  0  0
   -0.3027   -1.1096    0.8959 H   0  0  0  0  0
   -0.3278   -1.1236   -0.8698 H   0  0  0  0  0
   -1.6330    1.0488   -0.8696 H   0  0  0  0  0
   -1.6084    1.0626    0.8982 H   0  0  0  0  0
   -2.8125   -1.1649    0.9290 H   0  0  0  0  0
   -2.8398   -1.1740   -0.8361 H   0  0  0  0  0
   -5.2374   -0.3840    0.0780 H   0  0  0  0  0
    4.3266   -0.1028   -0.0570 H   0  0  0  0  0
  1  2  1  0  0  0
  1  8  1  0  0  0
  1  9  1  0  0  0
  1 21  1  0  0  0
  2  3  1  0  0  0
  2 10  1  0  0  0
  2 11  1  0  0  0
  3  4  1  0  0  0
  3 12  1  0  0  0
  3 13  1  0  0  0
  4  5  1  0  0  0
  4 14  1  0  0  0
  4 15  1  0  0  0
  5  6  1  0  0  0
  5 16  1  0  0  0
  5 17  1  0  0  0
  6  7  1  0  0  0
  6 18  1  0  0  0
  6 19  1  0  0  0
  7 20  1  0  0  0
M  END
