Octane-1-thiol
 OpenBabel01150813373D

 27 26  0  0  0  0  0  0  0  0999 V2000
    4.6452    0.5264   -0.0682 C   0  0  0  0  0
    3.4162   -0.3538   -0.0427 C   0  0  0  0  0
    2.1399    0.4723   -0.0342 C   0  0  0  0  0
    0.9056   -0.4146   -0.0091 C   0  0  0  0  0
   -0.3692    0.4135    0.0007 C   0  0  0  0  0
   -1.6031   -0.4739    0.0256 C   0  0  0  0  0
   -2.8766    0.3586    0.0367 C   0  0  0  0  0
   -4.1042   -0.5314    0.0607 C   0  0  0  0  0
   -5.5945    0.5225    0.0778 S   0  0  0  0  0
    4.6885    1.1874    0.8078 H   0  0  0  0  0
    4.6666    1.1665   -0.9603 H   0  0  0  0  0
    5.5644   -0.0731   -0.0726 H   0  0  0  0  0
    3.4427   -1.0154    0.8460 H   0  0  0  0  0
    3.4192   -1.0332   -0.9183 H   0  0  0  0  0
    2.1130    1.1341   -0.9233 H   0  0  0  0  0
    2.1362    1.1521    0.8416 H   0  0  0  0  0
    0.9338   -1.0774    0.8793 H   0  0  0  0  0
    0.9096   -1.0934   -0.8858 H   0  0  0  0  0
   -0.3972    1.0759   -0.8880 H   0  0  0  0  0
   -0.3732    1.0924    0.8774 H   0  0  0  0  0
   -1.5746   -1.1371    0.9138 H   0  0  0  0  0
   -1.5996   -1.1516   -0.8519 H   0  0  0  0  0
   -2.9042    1.0212   -0.8524 H   0  0  0  0  0
   -2.8798    1.0355    0.9154 H   0  0  0  0  0
   -4.0843   -1.1916    0.9469 H   0  0  0  0  0
   -4.1114   -1.2015   -0.8182 H   0  0  0  0  0
   -6.5090   -0.4108    0.0952 H   0  0  0  0  0
  1  2  1  0  0  0
  1 10  1  0  0  0
  1 11  1  0  0  0
  1 12  1  0  0  0
  2  3  1  0  0  0
  2 13  1  0  0  0
  2 14  1  0  0  0
  3  4  1  0  0  0
  3 15  1  0  0  0
  3 16  1  0  0  0
  4  5  1  0  0  0
  4 17  1  0  0  0
  4 18  1  0  0  0
  5  6  1  0  0  0
  5 19  1  0  0  0
  5 20  1  0  0  0
  6  7  1  0  0  0
  6 21  1  0  0  0
  6 22  1  0  0  0
  7  8  1  0  0  0
  7 23  1  0  0  0
  7 24  1  0  0  0
  8  9  1  0  0  0
  8 25  1  0  0  0
  8 26  1  0  0  0
  9 27  1  0  0  0
M  END
