Pentane-1-thiol
 OpenBabel01150813373D

 18 17  0  0  0  0  0  0  0  0999 V2000
    2.8101   -0.2491   -0.0367 C   0  0  0  0  0
    1.5407    0.5723   -0.0267 C   0  0  0  0  0
    0.3057   -0.3140   -0.0021 C   0  0  0  0  0
   -0.9680    0.5180    0.0094 C   0  0  0  0  0
   -2.1954   -0.3722    0.0330 C   0  0  0  0  0
   -3.6859    0.6815    0.0511 S   0  0  0  0  0
    2.8851   -0.8905    0.8516 H   0  0  0  0  0
    2.8620   -0.9042   -0.9165 H   0  0  0  0  0
    1.5112    1.2347   -0.9148 H   0  0  0  0  0
    1.5352    1.2504    0.8499 H   0  0  0  0  0
    0.3351   -0.9777    0.8855 H   0  0  0  0  0
    0.3101   -0.9914   -0.8799 H   0  0  0  0  0
   -0.9958    1.1810   -0.8794 H   0  0  0  0  0
   -0.9713    1.1945    0.8884 H   0  0  0  0  0
   -2.1752   -1.0331    0.9187 H   0  0  0  0  0
   -2.2027   -1.0417   -0.8463 H   0  0  0  0  0
   -4.6003   -0.2519    0.0682 H   0  0  0  0  0
    3.6996    0.3934   -0.0533 H   0  0  0  0  0
  1  2  1  0  0  0
  1  7  1  0  0  0
  1  8  1  0  0  0
  1 18  1  0  0  0
  2  3  1  0  0  0
  2  9  1  0  0  0
  2 10  1  0  0  0
  3  4  1  0  0  0
  3 11  1  0  0  0
  3 12  1  0  0  0
  4  5  1  0  0  0
  4 13  1  0  0  0
  4 14  1  0  0  0
  5  6  1  0  0  0
  5 15  1  0  0  0
  5 16  1  0  0  0
  6 17  1  0  0  0
M  END
