(R)-Butane-2-thiol
 OpenBabel01150813373D

 15 14  0  0  0  0  0  0  0  0999 V2000
    0.7265    0.1500    0.3979 C   0  0  0  0  0
   -0.5665   -0.2731   -0.2948 C   0  0  0  0  0
   -1.2523    1.0015   -1.4267 S   0  0  0  0  0
    1.9002    0.2235   -0.5527 C   0  0  0  0  0
    0.5804    1.1259    0.9038 H   0  0  0  0  0
   -1.5903   -0.7200    0.7315 C   0  0  0  0  0
   -1.4612    1.9786   -0.5820 H   0  0  0  0  0
    0.9543   -0.5712    1.2096 H   0  0  0  0  0
   -2.5422   -0.9949    0.2581 H   0  0  0  0  0
   -1.8006    0.0688    1.4669 H   0  0  0  0  0
   -1.2354   -1.5981    1.2887 H   0  0  0  0  0
   -0.3492   -1.1205   -0.9898 H   0  0  0  0  0
    2.8038    0.5714   -0.0364 H   0  0  0  0  0
    1.7036    0.9156   -1.3833 H   0  0  0  0  0
    2.1288   -0.7573   -0.9908 H   0  0  0  0  0
  1  2  1  0  0  0
  1  4  1  0  0  0
  1  5  1  0  0  0
  1  8  1  0  0  0
  2  3  1  0  0  0
  2  6  1  0  0  0
  2 12  1  0  0  0
  3  7  1  0  0  0
  4 13  1  0  0  0
  4 14  1  0  0  0
  4 15  1  0  0  0
  6  9  1  0  0  0
  6 10  1  0  0  0
  6 11  1  0  0  0
M  END
