Thiepin
 OpenBabel01150813373D

 13 13  0  0  0  0  0  0  0  0999 V2000
    0.8747    1.9827    0.0000 S   0  0  0  0  0
    1.7715    0.5006    0.0000 C   0  0  0  0  0
    1.4282   -0.7880    0.0000 C   0  0  0  0  0
    0.1132   -1.4001    0.0000 C   0  0  0  0  0
   -1.1105   -0.8604    0.0000 C   0  0  0  0  0
   -1.5448    0.5236    0.0000 C   0  0  0  0  0
   -0.8245    1.6459    0.0000 C   0  0  0  0  0
    2.8451    0.7462    0.0000 H   0  0  0  0  0
    2.2469   -1.5225    0.0000 H   0  0  0  0  0
    0.1610   -2.4992    0.0000 H   0  0  0  0  0
   -1.9544   -1.5660    0.0000 H   0  0  0  0  0
   -2.6393    0.6332    0.0000 H   0  0  0  0  0
   -1.3671    2.6042    0.0000 H   0  0  0  0  0
  1  2  1  0  0  0
  7  1  1  0  0  0
  2  3  2  0  0  0
  2  8  1  0  0  0
  3  4  1  0  0  0
  3  9  1  0  0  0
  4  5  2  0  0  0
  4 10  1  0  0  0
  5  6  1  0  0  0
  5 11  1  0  0  0
  6  7  2  0  0  0
  6 12  1  0  0  0
  7 13  1  0  0  0
M  END
