cis-Decahydronaphthalene
 OpenBabel01150813373D

 28 29  0  0  0  0  0  0  0  0999 V2000
    2.3234    0.6387    0.7430 C   0  0  0  0  0
    2.3784   -0.6432   -0.0693 C   0  0  0  0  0
    1.2252   -1.5587    0.3018 C   0  0  0  0  0
   -0.1454   -0.8960    0.1693 C   0  0  0  0  0
   -0.1910    0.4701    0.8732 C   0  0  0  0  0
    1.0044    1.3529    0.5086 C   0  0  0  0  0
   -1.4981    1.2164    0.5654 C   0  0  0  0  0
   -2.5435    0.3340   -0.0926 C   0  0  0  0  0
   -0.8759   -1.5682    0.6883 H   0  0  0  0  0
    2.4508    0.4129    1.8205 H   0  0  0  0  0
    2.3485   -0.4075   -1.1522 H   0  0  0  0  0
    1.2572   -2.4748   -0.3206 H   0  0  0  0  0
    0.9669    2.2871    1.1024 H   0  0  0  0  0
   -1.3008    2.0863   -0.0948 H   0  0  0  0  0
   -2.8565   -0.4674    0.6070 H   0  0  0  0  0
   -1.9081    1.6466    1.4996 H   0  0  0  0  0
   -3.4606    0.9226   -0.2911 H   0  0  0  0  0
    3.1674    1.3013    0.4710 H   0  0  0  0  0
    3.3414   -1.1628    0.0991 H   0  0  0  0  0
    1.3562   -1.9006    1.3486 H   0  0  0  0  0
   -0.5952   -0.7780   -1.2837 C   0  0  0  0  0
   -0.1407    0.2700    1.9720 H   0  0  0  0  0
    0.9379    1.6680   -0.5535 H   0  0  0  0  0
   -2.0309   -0.2716   -1.3910 C   0  0  0  0  0
   -0.5006   -1.7603   -1.7869 H   0  0  0  0  0
    0.0903   -0.1007   -1.8326 H   0  0  0  0  0
   -2.7052   -1.0947   -1.6975 H   0  0  0  0  0
   -2.0953    0.4780   -2.2039 H   0  0  0  0  0
  1  2  1  0  0  0
  1  6  1  0  0  0
  1 10  1  0  0  0
  1 18  1  0  0  0
  2  3  1  0  0  0
  2 11  1  0  0  0
  2 19  1  0  0  0
  3  4  1  0  0  0
  3 12  1  0  0  0
  3 20  1  0  0  0
  4  5  1  0  0  0
  4  9  1  0  0  0
  4 21  1  0  0  0
  5  7  1  0  0  0
  6  5  1  0  0  0
  5 22  1  0  0  0
  6 13  1  0  0  0
  6 23  1  0  0  0
  7  8  1  0  0  0
  7 14  1  0  0  0
  7 16  1  0  0  0
  8 15  1  0  0  0
  8 17  1  0  0  0
 24  8  1  0  0  0
 21 24  1  0  0  0
 21 25  1  0  0  0
 21 26  1  0  0  0
 24 27  1  0  0  0
 24 28  1  0  0  0
M  END
