Decanoic acid
 OpenBabel01150813373D

 32 31  0  0  0  0  0  0  0  0999 V2000
   -0.2729   -0.4945   -0.4333 C   0  0  0  0  0
   -0.2136   -1.8236    0.3022 C   0  0  0  0  0
   -0.7740   -2.9486   -0.5536 C   0  0  0  0  0
   -0.7120   -4.2738    0.1878 C   0  0  0  0  0
   -1.2547   -5.4176   -0.6266 C   0  0  0  0  0
   -1.7185   -5.4346   -1.7523 O   0  0  0  0  0
   -1.2177   -6.6197    0.0010 O   0  0  0  0  0
   -1.3195   -0.2679   -0.7211 H   0  0  0  0  0
    0.2884   -0.5644   -1.3870 H   0  0  0  0  0
    0.2874    0.6337    0.4178 C   0  0  0  0  0
   -0.7763   -1.7541    1.2551 H   0  0  0  0  0
    0.8328   -2.0502    0.5908 H   0  0  0  0  0
   -0.2122   -3.0184   -1.5067 H   0  0  0  0  0
   -1.8200   -2.7225   -0.8427 H   0  0  0  0  0
   -1.2804   -4.2116    1.1384 H   0  0  0  0  0
    0.3336   -4.5066    0.4767 H   0  0  0  0  0
   -1.5744   -7.2929   -0.5701 H   0  0  0  0  0
    0.2285    1.9613   -0.3201 C   0  0  0  0  0
    1.3336    0.4069    0.7068 H   0  0  0  0  0
   -0.2749    0.7047    1.3707 H   0  0  0  0  0
    0.7879    3.0917    0.5283 C   0  0  0  0  0
   -0.8179    2.1873   -0.6090 H   0  0  0  0  0
    0.7904    1.8897   -1.2733 H   0  0  0  0  0
    0.7309    4.4192   -0.2106 C   0  0  0  0  0
    1.8338    2.8662    0.8190 H   0  0  0  0  0
    0.2249    3.1655    1.4806 H   0  0  0  0  0
    1.2862    5.5459    0.6310 C   0  0  0  0  0
   -0.3148    4.6438   -0.5012 H   0  0  0  0  0
    1.2935    4.3449   -1.1625 H   0  0  0  0  0
    2.3343    5.3677    0.9061 H   0  0  0  0  0
    0.7213    5.6706    1.5644 H   0  0  0  0  0
    1.2462    6.5017    0.0933 H   0  0  0  0  0
  1  2  1  0  0  0
  1  8  1  0  0  0
  1  9  1  0  0  0
  1 10  1  0  0  0
  2  3  1  0  0  0
  2 11  1  0  0  0
  2 12  1  0  0  0
  3  4  1  0  0  0
  3 13  1  0  0  0
  3 14  1  0  0  0
  4  5  1  0  0  0
  4 15  1  0  0  0
  4 16  1  0  0  0
  5  6  2  0  0  0
  5  7  1  0  0  0
  7 17  1  0  0  0
 10 18  1  0  0  0
 10 19  1  0  0  0
 10 20  1  0  0  0
 18 21  1  0  0  0
 18 22  1  0  0  0
 18 23  1  0  0  0
 21 24  1  0  0  0
 21 25  1  0  0  0
 21 26  1  0  0  0
 24 27  1  0  0  0
 24 28  1  0  0  0
 24 29  1  0  0  0
 27 30  1  0  0  0
 27 31  1  0  0  0
 27 32  1  0  0  0
M  END
