Tetradecanoic acid
 OpenBabel01150813373D

 44 43  0  0  0  0  0  0  0  0999 V2000
   -1.2417   -2.7727   -0.6950 C   0  0  0  0  0
   -1.4370   -4.1211   -0.0209 C   0  0  0  0  0
   -2.1466   -5.0975   -0.9458 C   0  0  0  0  0
   -2.3390   -6.4433   -0.2664 C   0  0  0  0  0
   -3.0367   -7.4424   -1.1503 C   0  0  0  0  0
   -3.4551   -7.3324   -2.2885 O   0  0  0  0  0
   -3.2258   -8.6588   -0.5801 O   0  0  0  0  0
   -2.2228   -2.3592   -1.0047 H   0  0  0  0  0
   -0.6637   -2.8988   -1.6328 H   0  0  0  0  0
   -0.5320   -1.7921    0.2247 C   0  0  0  0  0
   -2.0164   -3.9955    0.9162 H   0  0  0  0  0
   -0.4563   -4.5352    0.2892 H   0  0  0  0  0
   -1.5683   -5.2231   -1.8832 H   0  0  0  0  0
   -3.1272   -4.6841   -1.2563 H   0  0  0  0  0
   -2.9248   -6.3240    0.6682 H   0  0  0  0  0
   -1.3601   -6.8635    0.0432 H   0  0  0  0  0
   -3.6699   -9.2366   -1.1928 H   0  0  0  0  0
   -0.3371   -0.4453   -0.4528 C   0  0  0  0  0
    0.4488   -2.2055    0.5355 H   0  0  0  0  0
   -1.1107   -1.6645    1.1618 H   0  0  0  0  0
    0.3718    0.5388    0.4636 C   0  0  0  0  0
   -1.3183   -0.0332   -0.7638 H   0  0  0  0  0
    0.2411   -0.5736   -1.3901 H   0  0  0  0  0
    0.5650    1.8842   -0.2171 C   0  0  0  0  0
    1.3531    0.1272    0.7751 H   0  0  0  0  0
   -0.2066    0.6680    1.4007 H   0  0  0  0  0
    1.2733    2.8712    0.6967 C   0  0  0  0  0
   -0.4168    2.2947   -0.5287 H   0  0  0  0  0
    1.1430    1.7545   -1.1545 H   0  0  0  0  0
    2.2550    2.4611    1.0088 H   0  0  0  0  0
    0.6950    3.0020    1.6336 H   0  0  0  0  0
    1.4655    4.2155    0.0134 C   0  0  0  0  0
    2.1736    5.2039    0.9256 C   0  0  0  0  0
    0.4835    4.6251   -0.2986 H   0  0  0  0  0
    2.0432    4.0845   -0.9239 H   0  0  0  0  0
    3.1551    4.7945    1.2391 H   0  0  0  0  0
    1.5952    5.3369    1.8621 H   0  0  0  0  0
    2.3679    6.5480    0.2421 C   0  0  0  0  0
    3.0720    7.5332    1.1475 C   0  0  0  0  0
    1.3864    6.9565   -0.0710 H   0  0  0  0  0
    2.9456    6.4144   -0.6941 H   0  0  0  0  0
    4.0641    7.1702    1.4474 H   0  0  0  0  0
    2.5011    7.7173    2.0673 H   0  0  0  0  0
    3.2134    8.5009    0.6498 H   0  0  0  0  0
  1  2  1  0  0  0
  1  8  1  0  0  0
  1  9  1  0  0  0
  1 10  1  0  0  0
  2  3  1  0  0  0
  2 11  1  0  0  0
  2 12  1  0  0  0
  3  4  1  0  0  0
  3 13  1  0  0  0
  3 14  1  0  0  0
  4  5  1  0  0  0
  4 15  1  0  0  0
  4 16  1  0  0  0
  5  6  2  0  0  0
  5  7  1  0  0  0
  7 17  1  0  0  0
 10 18  1  0  0  0
 10 19  1  0  0  0
 10 20  1  0  0  0
 18 21  1  0  0  0
 18 22  1  0  0  0
 18 23  1  0  0  0
 21 24  1  0  0  0
 21 25  1  0  0  0
 21 26  1  0  0  0
 24 27  1  0  0  0
 24 28  1  0  0  0
 24 29  1  0  0  0
 27 30  1  0  0  0
 27 31  1  0  0  0
 27 32  1  0  0  0
 32 33  1  0  0  0
 32 34  1  0  0  0
 32 35  1  0  0  0
 33 36  1  0  0  0
 33 37  1  0  0  0
 33 38  1  0  0  0
 38 39  1  0  0  0
 38 40  1  0  0  0
 38 41  1  0  0  0
 39 42  1  0  0  0
 39 43  1  0  0  0
 39 44  1  0  0  0
M  END
