Ethyl acetate
 OpenBabel01150813363D

 14 13  0  0  0  0  0  0  0  0999 V2000
    1.0280   -0.3323    2.6762 H   0  0  0  0  0
    0.6881    0.6470    2.3143 C   0  0  0  0  0
   -0.3516    0.7815    2.6400 H   0  0  0  0  0
    1.2992    1.4179    2.8009 H   0  0  0  0  0
    0.8099    0.7253    0.8190 C   0  0  0  0  0
   -0.0888   -0.0724    0.1732 O   0  0  0  0  0
   -0.0746   -0.0982   -1.2555 C   0  0  0  0  0
    0.9161   -0.4384   -1.6112 H   0  0  0  0  0
    1.5925    1.3933    0.1715 O   0  0  0  0  0
   -1.1771   -1.0492   -1.6794 C   0  0  0  0  0
   -0.2433    0.9218   -1.6494 H   0  0  0  0  0
   -1.0195   -2.0643   -1.2919 H   0  0  0  0  0
   -1.2141   -1.1144   -2.7742 H   0  0  0  0  0
   -2.1649   -0.7176   -1.3333 H   0  0  0  0  0
  1  2  1  0  0  0
  2  3  1  0  0  0
  2  4  1  0  0  0
  2  5  1  0  0  0
  5  6  1  0  0  0
  5  9  2  0  0  0
  6  7  1  0  0  0
  7  8  1  0  0  0
  7 10  1  0  0  0
  7 11  1  0  0  0
 10 12  1  0  0  0
 10 13  1  0  0  0
 10 14  1  0  0  0
M  END
