Propyl butanoate
 OpenBabel01150813363D

 23 22  0  0  0  0  0  0  0  0999 V2000
    0.4951    0.3862    0.3983 C   0  0  0  0  0
    0.3441    1.1598    1.3230 O   0  0  0  0  0
   -0.6036   -0.1987   -0.1652 O   0  0  0  0  0
   -1.8920    0.1250    0.3585 C   0  0  0  0  0
   -2.0695    1.2142    0.2750 H   0  0  0  0  0
   -1.9407   -0.1443    1.4308 H   0  0  0  0  0
   -2.9033   -0.6700   -0.4633 C   0  0  0  0  0
    1.7762   -0.0594   -0.2680 C   0  0  0  0  0
   -4.3077   -0.3901    0.0217 C   0  0  0  0  0
   -2.6867   -1.7547   -0.3971 H   0  0  0  0  0
   -2.8134   -0.4146   -1.5378 H   0  0  0  0  0
   -4.5633    0.6743   -0.0669 H   0  0  0  0  0
   -4.4367   -0.6703    1.0757 H   0  0  0  0  0
    1.7206    0.1790   -1.3499 H   0  0  0  0  0
    1.8480   -1.1646   -0.2066 H   0  0  0  0  0
    3.0091    0.5817    0.3480 C   0  0  0  0  0
   -5.0470   -0.9545   -0.5606 H   0  0  0  0  0
    2.9320    1.6854    0.2894 H   0  0  0  0  0
    4.2674    0.1107   -0.3461 C   0  0  0  0  0
    3.0592    0.3453    1.4293 H   0  0  0  0  0
    4.3907   -0.9780   -0.2705 H   0  0  0  0  0
    5.1589    0.5729    0.0968 H   0  0  0  0  0
    4.2625    0.3651   -1.4145 H   0  0  0  0  0
  1  2  2  0  0  0
  1  3  1  0  0  0
  1  8  1  0  0  0
  3  4  1  0  0  0
  4  5  1  0  0  0
  4  6  1  0  0  0
  4  7  1  0  0  0
  7  9  1  0  0  0
  7 10  1  0  0  0
  7 11  1  0  0  0
  8 14  1  0  0  0
  8 15  1  0  0  0
  8 16  1  0  0  0
  9 12  1  0  0  0
  9 13  1  0  0  0
  9 17  1  0  0  0
 16 18  1  0  0  0
 16 19  1  0  0  0
 16 20  1  0  0  0
 19 21  1  0  0  0
 19 22  1  0  0  0
 19 23  1  0  0  0
M  END
