Cyclohepta-1,3,5-triene
 OpenBabel01150813363D

 15 15  0  0  0  0  0  0  0  0999 V2000
    0.1496    1.6411    0.0404 C   0  0  0  0  0
   -1.0658    1.0786   -0.5112 C   0  0  0  0  0
   -1.4756   -0.1843   -0.3396 C   0  0  0  0  0
   -0.7470   -1.1802    0.4922 C   0  0  0  0  0
    0.0989    2.7096    0.2860 H   0  0  0  0  0
   -1.6730    1.7712   -1.1075 H   0  0  0  0  0
   -2.4004   -0.5279   -0.8166 H   0  0  0  0  0
   -1.2971   -2.1403    0.5118 H   0  0  0  0  0
   -0.7084   -0.8323    1.5457 H   0  0  0  0  0
    1.3061    0.9820    0.2158 C   0  0  0  0  0
    2.1789    1.5242    0.6015 H   0  0  0  0  0
    1.5429   -0.4079   -0.1159 C   0  0  0  0  0
    0.6349   -1.3869   -0.0198 C   0  0  0  0  0
    2.5567   -0.6386   -0.4665 H   0  0  0  0  0
    0.8993   -2.4082   -0.3165 H   0  0  0  0  0
  1  2  1  0  0  0
  1  5  1  0  0  0
  1 10  2  0  0  0
  2  3  2  0  0  0
  2  6  1  0  0  0
  3  4  1  0  0  0
  3  7  1  0  0  0
  4  8  1  0  0  0
  4  9  1  0  0  0
 13  4  1  0  0  0
 10 11  1  0  0  0
 10 12  1  0  0  0
 12 13  2  0  0  0
 12 14  1  0  0  0
 13 15  1  0  0  0
M  END
