Cycloocta-1,3-diene
 OpenBabel01150813363D

 20 20  0  0  0  0  0  0  0  0999 V2000
    1.6981   -0.5915   -0.3673 C   0  0  0  0  0
    0.9111   -1.5966    0.0192 C   0  0  0  0  0
    2.5243   -0.8245   -1.0524 H   0  0  0  0  0
    1.1075   -2.6068   -0.3665 H   0  0  0  0  0
   -0.1944   -1.5538    0.9631 C   0  0  0  0  0
   -1.3564   -0.9115    0.8353 C   0  0  0  0  0
   -0.0209   -2.1707    1.8559 H   0  0  0  0  0
   -2.1012   -1.0396    1.6323 H   0  0  0  0  0
    1.6234    0.8395    0.0297 C   0  0  0  0  0
   -1.8054   -0.0381   -0.2810 C   0  0  0  0  0
    2.1692    0.9635    0.9871 H   0  0  0  0  0
    0.2255    1.4328    0.1560 C   0  0  0  0  0
    2.1956    1.4291   -0.7153 H   0  0  0  0  0
   -2.2286   -0.6828   -1.0779 H   0  0  0  0  0
   -0.7538    0.8899   -0.8773 C   0  0  0  0  0
   -2.6547    0.5736    0.0862 H   0  0  0  0  0
   -0.1659    1.2599    1.1790 H   0  0  0  0  0
    0.3022    2.5338    0.0602 H   0  0  0  0  0
   -1.2725    1.7286   -1.3820 H   0  0  0  0  0
   -0.2033    0.3652   -1.6843 H   0  0  0  0  0
  1  2  2  0  0  0
  1  3  1  0  0  0
  1  9  1  0  0  0
  2  4  1  0  0  0
  2  5  1  0  0  0
  6  5  2  0  0  0
  5  7  1  0  0  0
  6  8  1  0  0  0
  6 10  1  0  0  0
  9 11  1  0  0  0
  9 12  1  0  0  0
  9 13  1  0  0  0
 10 14  1  0  0  0
 10 15  1  0  0  0
 10 16  1  0  0  0
 12 17  1  0  0  0
 12 18  1  0  0  0
 15 12  1  0  0  0
 15 19  1  0  0  0
 15 20  1  0  0  0
M  END
