(E)-Hex-3-ene
 OpenBabel01150813363D

 18 17  0  0  0  0  0  0  0  0999 V2000
    2.6215   -0.0316    1.4963 C   0  0  0  0  0
    1.9019    0.2555    0.1960 C   0  0  0  0  0
    0.4279    0.3087    0.3928 C   0  0  0  0  0
   -0.4319   -0.3385   -0.3946 C   0  0  0  0  0
   -1.9061   -0.2833   -0.2005 C   0  0  0  0  0
   -2.6165    0.0665   -1.4906 C   0  0  0  0  0
    2.3975    0.7245    2.2606 H   0  0  0  0  0
    2.3344   -1.0072    1.9094 H   0  0  0  0  0
    2.1774   -0.5019   -0.5651 H   0  0  0  0  0
    2.2331    1.2296   -0.2173 H   0  0  0  0  0
    0.0781    0.9231    1.2325 H   0  0  0  0  0
   -0.0822   -0.9526   -1.2344 H   0  0  0  0  0
   -2.1798    0.4419    0.5919 H   0  0  0  0  0
   -2.2465   -1.2720    0.1678 H   0  0  0  0  0
   -2.3927   -0.6559   -2.2866 H   0  0  0  0  0
   -2.3207    1.0576   -1.8580 H   0  0  0  0  0
    3.7095   -0.0423    1.3534 H   0  0  0  0  0
   -3.7052    0.0780   -1.3536 H   0  0  0  0  0
  1  2  1  0  0  0
  1  7  1  0  0  0
  1  8  1  0  0  0
  1 17  1  0  0  0
  2  3  1  0  0  0
  2  9  1  0  0  0
  2 10  1  0  0  0
  3  4  2  0  0  0
  3 11  1  0  0  0
  4  5  1  0  0  0
  4 12  1  0  0  0
  5  6  1  0  0  0
  5 13  1  0  0  0
  5 14  1  0  0  0
  6 15  1  0  0  0
  6 16  1  0  0  0
  6 18  1  0  0  0
M  END
