Pent-1-ene
 OpenBabel01150813363D

 15 14  0  0  0  0  0  0  0  0999 V2000
    2.4136    0.3858    1.0255 C   0  0  0  0  0
    1.5551   -0.2907    0.2718 C   0  0  0  0  0
    0.0816   -0.2467    0.4756 C   0  0  0  0  0
   -0.6469    0.0192   -0.8339 C   0  0  0  0  0
   -2.1459    0.0354   -0.6377 C   0  0  0  0  0
    2.1079    1.0335    1.8427 H   0  0  0  0  0
    1.9049   -0.9304   -0.5478 H   0  0  0  0  0
   -0.1970    0.5202    1.2266 H   0  0  0  0  0
   -0.2440   -1.2168    0.9032 H   0  0  0  0  0
   -0.3713   -0.7497   -1.5830 H   0  0  0  0  0
   -0.3095    0.9840   -1.2609 H   0  0  0  0  0
   -2.4537    0.8156    0.0713 H   0  0  0  0  0
   -2.5137   -0.9228   -0.2471 H   0  0  0  0  0
    3.4878    0.3367    0.8767 H   0  0  0  0  0
   -2.6691    0.2268   -1.5832 H   0  0  0  0  0
  1  2  2  0  0  0
  1  6  1  0  0  0
  1 14  1  0  0  0
  2  3  1  0  0  0
  2  7  1  0  0  0
  3  4  1  0  0  0
  3  8  1  0  0  0
  3  9  1  0  0  0
  4  5  1  0  0  0
  4 10  1  0  0  0
  4 11  1  0  0  0
  5 12  1  0  0  0
  5 13  1  0  0  0
  5 15  1  0  0  0
M  END
