Butanone
 OpenBabel01150813373D

 13 12  0  0  0  0  0  0  0  0999 V2000
    1.9745   -0.1996   -0.0079 C   0  0  0  0  0
    0.6434    0.5036    0.0673 C   0  0  0  0  0
   -0.5587   -0.4154    0.0291 C   0  0  0  0  0
   -1.8889    0.2950   -0.0464 C   0  0  0  0  0
    0.5627    1.7134    0.1547 O   0  0  0  0  0
    2.0817   -0.7103   -0.9738 H   0  0  0  0  0
    2.0554   -0.9591    0.7804 H   0  0  0  0  0
    2.8243    0.4868    0.1011 H   0  0  0  0  0
   -0.5199   -1.0598    0.9304 H   0  0  0  0  0
   -0.4434   -1.1004   -0.8347 H   0  0  0  0  0
   -2.0455    0.9582    0.8144 H   0  0  0  0  0
   -2.7173   -0.4248   -0.0641 H   0  0  0  0  0
   -1.9682    0.9124   -0.9506 H   0  0  0  0  0
  1  2  1  0  0  0
  1  6  1  0  0  0
  1  7  1  0  0  0
  1  8  1  0  0  0
  2  3  1  0  0  0
  2  5  2  0  0  0
  3  4  1  0  0  0
  3  9  1  0  0  0
  3 10  1  0  0  0
  4 11  1  0  0  0
  4 12  1  0  0  0
  4 13  1  0  0  0
M  END
