Heptan-2-one
 OpenBabel01150813373D

 22 21  0  0  0  0  0  0  0  0999 V2000
    3.9970   -0.0657    2.2196 H   0  0  0  0  0
    3.4352   -0.0682    1.2770 C   0  0  0  0  0
    3.7717    0.7979    0.6918 H   0  0  0  0  0
    3.7289   -0.9694    0.7224 H   0  0  0  0  0
    1.9444   -0.0277    1.5267 C   0  0  0  0  0
    1.6409   -0.8938    2.1480 H   0  0  0  0  0
    1.6838    0.8699    2.1222 H   0  0  0  0  0
    1.1621   -0.0278    0.2232 C   0  0  0  0  0
    1.4626    0.8408   -0.3970 H   0  0  0  0  0
    1.4261   -0.9237   -0.3743 H   0  0  0  0  0
   -0.3366    0.0062    0.4789 C   0  0  0  0  0
   -0.6359   -0.8600    1.1024 H   0  0  0  0  0
   -0.6012    0.9037    1.0732 H   0  0  0  0  0
   -1.1105   -0.0001   -0.8268 C   0  0  0  0  0
   -0.8192    0.8726   -1.4462 H   0  0  0  0  0
   -0.8419   -0.8948   -1.4250 H   0  0  0  0  0
   -2.6145    0.0169   -0.6631 C   0  0  0  0  0
   -3.1766   -0.0293    0.4140 O   0  0  0  0  0
   -3.3838    0.0955   -1.9569 C   0  0  0  0  0
   -3.1795    1.0474   -2.4644 H   0  0  0  0  0
   -3.0836   -0.7137   -2.6352 H   0  0  0  0  0
   -4.4693    0.0234   -1.8106 H   0  0  0  0  0
  1  2  1  0  0  0
  2  3  1  0  0  0
  2  4  1  0  0  0
  2  5  1  0  0  0
  5  6  1  0  0  0
  5  7  1  0  0  0
  5  8  1  0  0  0
  8  9  1  0  0  0
  8 10  1  0  0  0
  8 11  1  0  0  0
 11 12  1  0  0  0
 11 13  1  0  0  0
 11 14  1  0  0  0
 14 15  1  0  0  0
 14 16  1  0  0  0
 14 17  1  0  0  0
 17 18  2  0  0  0
 17 19  1  0  0  0
 19 20  1  0  0  0
 19 21  1  0  0  0
 19 22  1  0  0  0
M  END
