Pentan-2-one
 OpenBabel01150813373D

 16 15  0  0  0  0  0  0  0  0999 V2000
    3.1049    0.1725    1.6811 H   0  0  0  0  0
    2.5015    0.1064    0.7665 C   0  0  0  0  0
    2.7724    0.9569    0.1271 H   0  0  0  0  0
    2.7931   -0.8115    0.2398 H   0  0  0  0  0
    1.0200    0.1104    1.0438 C   0  0  0  0  0
    0.5800    0.2395    2.1699 O   0  0  0  0  0
    0.1496   -0.0598   -0.1819 C   0  0  0  0  0
    0.4516    0.6999   -0.9314 H   0  0  0  0  0
    0.3886   -1.0419   -0.6384 H   0  0  0  0  0
   -1.3413    0.0400    0.0876 C   0  0  0  0  0
   -1.6416   -0.7186    0.8372 H   0  0  0  0  0
   -1.5769    1.0200    0.5476 H   0  0  0  0  0
   -2.1395   -0.1422   -1.1839 C   0  0  0  0  0
   -1.8883    0.6188   -1.9349 H   0  0  0  0  0
   -1.9573   -1.1238   -1.6413 H   0  0  0  0  0
   -3.2168   -0.0668   -0.9889 H   0  0  0  0  0
  1  2  1  0  0  0
  2  3  1  0  0  0
  2  4  1  0  0  0
  2  5  1  0  0  0
  5  6  2  0  0  0
  5  7  1  0  0  0
  7  8  1  0  0  0
  7  9  1  0  0  0
  7 10  1  0  0  0
 10 11  1  0  0  0
 10 12  1  0  0  0
 10 13  1  0  0  0
 13 14  1  0  0  0
 13 15  1  0  0  0
 13 16  1  0  0  0
M  END
