Pyran-4-one
 OpenBabel01150813373D

 11 11  0  0  0  0  0  0  0  0999 V2000
    1.5541    0.3837    0.0000 O   0  0  0  0  0
    1.1438   -0.9200    0.0000 C   0  0  0  0  0
   -0.1437   -1.3079    0.0000 C   0  0  0  0  0
   -1.2212   -0.3015   -0.0000 C   0  0  0  0  0
   -0.7360    1.0907    0.0000 C   0  0  0  0  0
    0.5841    1.3467    0.0000 C   0  0  0  0  0
   -2.4056   -0.5938    0.0000 O   0  0  0  0  0
    2.0318   -1.5576    0.0000 H   0  0  0  0  0
   -0.4128   -2.3690    0.0000 H   0  0  0  0  0
   -1.4681    1.9046    0.0000 H   0  0  0  0  0
    1.0736    2.3241    0.0000 H   0  0  0  0  0
  1  2  1  0  0  0
  6  1  1  0  0  0
  2  3  2  0  0  0
  2  8  1  0  0  0
  3  4  1  0  0  0
  3  9  1  0  0  0
  4  5  1  0  0  0
  4  7  2  0  0  0
  6  5  2  0  0  0
  5 10  1  0  0  0
  6 11  1  0  0  0
M  END
