Pyran-2-one
 OpenBabel01150813373D

 11 11  0  0  0  0  0  0  0  0999 V2000
    1.5413    0.4056   -0.0000 O   0  0  0  0  0
    1.1621   -0.9305    0.0000 C   0  0  0  0  0
   -0.2565   -1.2895    0.0000 C   0  0  0  0  0
   -1.1818   -0.3070    0.0000 C   0  0  0  0  0
   -0.7546    1.0656   -0.0000 C   0  0  0  0  0
    0.5696    1.3501    0.0000 C   0  0  0  0  0
    2.1578   -1.6201   -0.0000 O   0  0  0  0  0
   -1.5020    1.8633    0.0000 H   0  0  0  0  0
    1.0302    2.3414   -0.0000 H   0  0  0  0  0
   -0.5113   -2.3538   -0.0000 H   0  0  0  0  0
   -2.2547   -0.5251   -0.0000 H   0  0  0  0  0
  1  2  1  0  0  0
  6  1  1  0  0  0
  2  3  1  0  0  0
  2  7  2  0  0  0
  3  4  2  0  0  0
  3 10  1  0  0  0
  4  5  1  0  0  0
  4 11  1  0  0  0
  6  5  2  0  0  0
  5  8  1  0  0  0
  6  9  1  0  0  0
M  END
