1H-Pyrrole
 OpenBabel01150813373D

 10 10  0  0  0  0  0  0  0  0999 V2000
   -0.9437    0.6016   -0.3457 N   0  0  0  0  0
    0.3012    1.1606   -0.0470 C   0  0  0  0  0
    1.1398    0.1146    0.3199 C   0  0  0  0  0
    0.3972   -1.0944    0.2435 C   0  0  0  0  0
   -0.8929   -0.7833   -0.1697 C   0  0  0  0  0
    0.5170    2.2259   -0.1084 H   0  0  0  0  0
    2.1820    0.2012    0.6143 H   0  0  0  0  0
    0.7763   -2.0870    0.4697 H   0  0  0  0  0
   -1.7392   -1.4466   -0.3400 H   0  0  0  0  0
   -1.7377    1.1075   -0.6366 H   0  0  0  0  0
  1  2  1  0  0  0
  5  1  1  0  0  0
  1 10  1  0  0  0
  2  3  2  0  0  0
  2  6  1  0  0  0
  3  4  1  0  0  0
  3  7  1  0  0  0
  4  5  2  0  0  0
  4  8  1  0  0  0
  5  9  1  0  0  0
M  END
