But-2-yne
 OpenBabel01150813363D

 10  9  0  0  0  0  0  0  0  0999 V2000
    0.5799    0.0205    0.1380 C   0  0  0  0  0
   -0.5799   -0.0203   -0.1378 C   0  0  0  0  0
    1.9718    0.0693    0.4691 C   0  0  0  0  0
    2.1109    0.3532    1.5206 H   0  0  0  0  0
    2.4939    0.8048   -0.1572 H   0  0  0  0  0
    2.4423   -0.9104    0.3127 H   0  0  0  0  0
   -1.9718   -0.0693   -0.4690 C   0  0  0  0  0
   -2.1568    0.4103   -1.4393 H   0  0  0  0  0
   -2.5702    0.4508    0.2907 H   0  0  0  0  0
   -2.3201   -1.1089   -0.5279 H   0  0  0  0  0
  1  2  3  0  0  0
  1  3  1  0  0  0
  2  7  1  0  0  0
  3  4  1  0  0  0
  3  5  1  0  0  0
  3  6  1  0  0  0
  7  8  1  0  0  0
  7  9  1  0  0  0
  7 10  1  0  0  0
M  END
