1-Chloropentane
 OpenBabel01150813373D

 17 16  0  0  0  0  0  0  0  0999 V2000
    2.5550   -0.0746    0.0239 C   0  0  0  0  0
    1.2287    0.6473   -0.0515 C   0  0  0  0  0
    0.0620   -0.3239    0.0303 C   0  0  0  0  0
   -1.2692    0.4059   -0.0459 C   0  0  0  0  0
   -2.4255   -0.5638    0.0359 C   0  0  0  0  0
   -3.9489    0.3516   -0.0575 Cl  0  0  0  0  0
    2.6598   -0.6331    0.9637 H   0  0  0  0  0
    2.6720   -0.7943   -0.7973 H   0  0  0  0  0
    1.1678    1.2303   -0.9921 H   0  0  0  0  0
    1.1561    1.3929    0.7653 H   0  0  0  0  0
    0.1216   -0.9076    0.9711 H   0  0  0  0  0
    0.1332   -1.0696   -0.7871 H   0  0  0  0  0
   -1.3332    0.9889   -0.9865 H   0  0  0  0  0
   -1.3449    1.1514    0.7710 H   0  0  0  0  0
   -2.4202   -1.1342    0.9817 H   0  0  0  0  0
   -2.4092   -1.2965   -0.7903 H   0  0  0  0  0
    3.3949    0.6293   -0.0347 H   0  0  0  0  0
  1  2  1  0  0  0
  1  7  1  0  0  0
  1  8  1  0  0  0
  1 17  1  0  0  0
  2  3  1  0  0  0
  2  9  1  0  0  0
  2 10  1  0  0  0
  3  4  1  0  0  0
  3 11  1  0  0  0
  3 12  1  0  0  0
  4  5  1  0  0  0
  4 13  1  0  0  0
  4 14  1  0  0  0
  5  6  1  0  0  0
  5 15  1  0  0  0
  5 16  1  0  0  0
M  END
