1-Chloro-1,1,2,2,2-pentafluoroethane
 OpenBabel01150813373D

  8  7  0  0  0  0  0  0  0  0999 V2000
   -0.6314    0.3315   -0.3510 C   0  0  0  0  0
    0.5860   -0.3425    0.4307 C   0  0  0  0  0
   -0.9923   -0.3828   -1.4297 F   0  0  0  0  0
   -1.7233    0.4447    0.4231 F   0  0  0  0  0
   -0.3295    1.5678   -0.7805 F   0  0  0  0  0
    0.2269   -1.5560    0.8866 F   0  0  0  0  0
    1.9806   -0.4370   -0.7088 Cl  0  0  0  0  0
    0.8828    0.3743    1.5296 F   0  0  0  0  0
  1  2  1  0  0  0
  1  3  1  0  0  0
  1  4  1  0  0  0
  1  5  1  0  0  0
  2  6  1  0  0  0
  2  7  1  0  0  0
  2  8  1  0  0  0
M  END
