1-Chloropropane
 OpenBabel01150813373D

 11 10  0  0  0  0  0  0  0  0999 V2000
    1.3174   -0.1395    0.0217 C   0  0  0  0  0
   -0.0090    0.5823   -0.0538 C   0  0  0  0  0
   -1.1648   -0.3886    0.0281 C   0  0  0  0  0
   -2.6899    0.5236   -0.0653 Cl  0  0  0  0  0
    1.4229   -0.6971    0.9618 H   0  0  0  0  0
    1.4350   -0.8586   -0.7999 H   0  0  0  0  0
   -0.0757    1.1646   -0.9940 H   0  0  0  0  0
   -0.0874    1.3271    0.7628 H   0  0  0  0  0
   -1.1577   -0.9589    0.9738 H   0  0  0  0  0
   -1.1465   -1.1214   -0.7979 H   0  0  0  0  0
    2.1556    0.5663   -0.0373 H   0  0  0  0  0
  1  2  1  0  0  0
  1  5  1  0  0  0
  1  6  1  0  0  0
  1 11  1  0  0  0
  2  3  1  0  0  0
  2  7  1  0  0  0
  2  8  1  0  0  0
  3  4  1  0  0  0
  3  9  1  0  0  0
  3 10  1  0  0  0
M  END
