2-Chloropropane
 OpenBabel01150813373D

 11 10  0  0  0  0  0  0  0  0999 V2000
    1.2544    0.0006    0.2768 C   0  0  0  0  0
   -0.1528    0.5319    0.1602 C   0  0  0  0  0
   -1.1422   -0.5256   -0.2629 C   0  0  0  0  0
   -0.1531    1.8186   -1.0933 Cl  0  0  0  0  0
    1.5995   -0.4411   -0.6677 H   0  0  0  0  0
    1.3183   -0.7772    1.0488 H   0  0  0  0  0
    1.9599    0.7972    0.5456 H   0  0  0  0  0
   -0.4729    1.0124    1.1125 H   0  0  0  0  0
   -1.2001   -1.3303    0.4816 H   0  0  0  0  0
   -0.8618   -0.9814   -1.2220 H   0  0  0  0  0
   -2.1492   -0.1051   -0.3795 H   0  0  0  0  0
  1  2  1  0  0  0
  1  5  1  0  0  0
  1  6  1  0  0  0
  1  7  1  0  0  0
  2  3  1  0  0  0
  2  4  1  0  0  0
  2  8  1  0  0  0
  3  9  1  0  0  0
  3 10  1  0  0  0
  3 11  1  0  0  0
M  END
