Chloromethane
 OpenBabel01150813373D

  5  4  0  0  0  0  0  0  0  0999 V2000
    0.1115   -0.0648    0.0067 C   0  0  0  0  0
   -1.4117    0.8208   -0.0851 Cl  0  0  0  0  0
    0.1680   -0.6125    0.9521 H   0  0  0  0  0
    0.1797   -0.7761   -0.8217 H   0  0  0  0  0
    0.9524    0.6325   -0.0521 H   0  0  0  0  0
  1  2  1  0  0  0
  1  3  1  0  0  0
  1  4  1  0  0  0
  1  5  1  0  0  0
M  END
