(2R)-2-Amino-5-(diaminomethylideneamino)pentanoic acid
 OpenBabel01150813363D

 26 25  0  0  0  0  0  0  0  0999 V2000
    2.3944   -0.1631   -2.3312 N   0  0  0  0  0
    1.8020   -1.2175   -1.4737 C   0  0  0  0  0
    2.9218   -2.1638   -1.0562 C   0  0  0  0  0
    2.7241   -3.4593   -1.3891 O   0  0  0  0  0
    3.9517   -1.9149   -0.4569 O   0  0  0  0  0
    1.0950   -0.7040   -0.2097 C   0  0  0  0  0
   -0.2449   -0.0593   -0.5294 C   0  0  0  0  0
   -0.9202    0.4212    0.7518 C   0  0  0  0  0
   -2.2056    1.0990    0.4262 N   0  0  0  0  0
   -2.9184    1.6332    1.5747 C   0  0  0  0  0
   -2.2688    2.6820    2.3123 N   0  0  0  0  0
   -4.0731    1.1135    1.8612 N   0  0  0  0  0
    3.0698    0.3638   -1.8176 H   0  0  0  0  0
    1.6697    0.4457   -2.6492 H   0  0  0  0  0
    1.0643   -1.7660   -2.1141 H   0  0  0  0  0
    1.7460    0.0112    0.3353 H   0  0  0  0  0
    0.9368   -1.5503    0.4893 H   0  0  0  0  0
   -0.8935   -0.7856   -1.0621 H   0  0  0  0  0
   -0.1098    0.7891   -1.2310 H   0  0  0  0  0
   -0.2638    1.1430    1.2793 H   0  0  0  0  0
   -1.0652   -0.4319    1.4496 H   0  0  0  0  0
   -2.7891    0.4870   -0.1073 H   0  0  0  0  0
   -2.9245    3.3322    2.6881 H   0  0  0  0  0
   -1.5656    3.1500    1.7830 H   0  0  0  0  0
   -4.5994    1.5317    2.5870 H   0  0  0  0  0
    3.4662   -3.9869   -1.1103 H   0  0  0  0  0
  1  2  1  0  0  0
  1 13  1  0  0  0
  1 14  1  0  0  0
  2  3  1  0  0  0
  2  6  1  0  0  0
  2 15  1  0  0  0
  3  4  1  0  0  0
  3  5  2  0  0  0
  4 26  1  0  0  0
  6  7  1  0  0  0
  6 16  1  0  0  0
  6 17  1  0  0  0
  7  8  1  0  0  0
  7 18  1  0  0  0
  7 19  1  0  0  0
  8  9  1  0  0  0
  8 20  1  0  0  0
  8 21  1  0  0  0
  9 10  1  0  0  0
  9 22  1  0  0  0
 10 11  1  0  0  0
 10 12  2  0  0  0
 11 23  1  0  0  0
 11 24  1  0  0  0
 12 25  1  0  0  0
M  END
