(2R)-2-Amino-4-carbamoylbutanoic acid
 OpenBabel01150813363D

 20 19  0  0  0  0  0  0  0  0999 V2000
    1.8008   -0.6106   -1.7225 C   0  0  0  0  0
    0.8485   -0.9522   -0.5752 C   0  0  0  0  0
    0.2131    0.3042    0.0314 C   0  0  0  0  0
    0.9863    1.0840    0.1765 H   0  0  0  0  0
   -0.5179    0.7482   -0.6750 H   0  0  0  0  0
   -0.4445   -0.0212    1.3634 C   0  0  0  0  0
   -1.2423   -0.7805    1.2277 H   0  0  0  0  0
    0.2996   -0.4847    2.0446 H   0  0  0  0  0
   -1.0022    1.2282    2.0133 C   0  0  0  0  0
   -0.4380    1.8560    2.9024 O   0  0  0  0  0
   -2.2460    1.7071    1.5915 N   0  0  0  0  0
   -2.6876    2.4505    2.0766 H   0  0  0  0  0
   -2.7804    1.1905    0.9370 H   0  0  0  0  0
   -0.2076   -1.9069   -0.9875 N   0  0  0  0  0
    1.5122    0.4749   -2.4752 O   0  0  0  0  0
    2.7994   -1.2209   -2.0587 O   0  0  0  0  0
    1.4604   -1.4658    0.2137 H   0  0  0  0  0
    0.2050   -2.7448   -1.3326 H   0  0  0  0  0
   -0.7977   -1.5013   -1.6837 H   0  0  0  0  0
    2.2389    0.6454   -3.0679 H   0  0  0  0  0
  1  2  1  0  0  0
  1 15  1  0  0  0
  1 16  2  0  0  0
  2  3  1  0  0  0
  2 14  1  0  0  0
  2 17  1  0  0  0
  3  4  1  0  0  0
  3  5  1  0  0  0
  3  6  1  0  0  0
  6  7  1  0  0  0
  6  8  1  0  0  0
  6  9  1  0  0  0
  9 10  2  0  0  0
  9 11  1  0  0  0
 11 12  1  0  0  0
 11 13  1  0  0  0
 14 18  1  0  0  0
 14 19  1  0  0  0
 15 20  1  0  0  0
M  END
