(2R)-2-Amino-3-methylbutanoic acid
 OpenBabel01150813363D

 19 18  0  0  0  0  0  0  0  0999 V2000
    1.3750    0.3158   -0.8848 H   0  0  0  0  0
    0.5909   -0.4016   -0.5296 C   0  0  0  0  0
    1.2976   -1.6282   -0.0889 N   0  0  0  0  0
    2.0122   -1.3807    0.5629 H   0  0  0  0  0
    0.6569   -2.2595    0.3452 H   0  0  0  0  0
   -0.2576    0.2913    0.5624 C   0  0  0  0  0
   -1.0490   -0.4182    0.9108 H   0  0  0  0  0
   -0.9333    1.5333    0.0016 C   0  0  0  0  0
   -0.1986    2.2701   -0.3508 H   0  0  0  0  0
   -1.5522    2.0247    0.7640 H   0  0  0  0  0
   -1.5893    1.2910   -0.8450 H   0  0  0  0  0
    0.6035    0.6815    1.7547 C   0  0  0  0  0
    1.4573    1.3043    1.4540 H   0  0  0  0  0
    1.0015   -0.1940    2.2853 H   0  0  0  0  0
    0.0203    1.2585    2.4853 H   0  0  0  0  0
   -0.2723   -0.7793   -1.7305 C   0  0  0  0  0
   -0.1771   -0.3791   -2.8757 O   0  0  0  0  0
   -1.2666   -1.6698   -1.5025 O   0  0  0  0  0
   -1.7191   -1.8602   -2.3185 H   0  0  0  0  0
  1  2  1  0  0  0
  2  3  1  0  0  0
  2  6  1  0  0  0
  2 16  1  0  0  0
  3  4  1  0  0  0
  3  5  1  0  0  0
  6  7  1  0  0  0
  6  8  1  0  0  0
  6 12  1  0  0  0
  8  9  1  0  0  0
  8 10  1  0  0  0
  8 11  1  0  0  0
 12 13  1  0  0  0
 12 14  1  0  0  0
 12 15  1  0  0  0
 16 17  2  0  0  0
 16 18  1  0  0  0
 18 19  1  0  0  0
M  END
