(2S,3S)-2-Amino-3-methylpentanoic acid
 OpenBabel01150813363D

 22 21  0  0  0  0  0  0  0  0999 V2000
    2.3147    0.1585    0.3837 C   0  0  0  0  0
    1.0507   -0.6715    0.1943 C   0  0  0  0  0
   -0.1767    0.2554    0.0159 C   0  0  0  0  0
   -1.4473   -0.5783   -0.1844 C   0  0  0  0  0
   -2.7012    0.2210    0.0902 C   0  0  0  0  0
    2.6066    0.9099    1.2966 O   0  0  0  0  0
    3.2356    0.0332   -0.5984 O   0  0  0  0  0
    0.9515   -1.6009    1.3481 N   0  0  0  0  0
    1.1503   -1.3154   -0.7170 H   0  0  0  0  0
    0.0282    1.1858   -1.1690 C   0  0  0  0  0
   -1.4281   -1.4702    0.4813 H   0  0  0  0  0
   -1.4712   -0.9835   -1.2160 H   0  0  0  0  0
   -2.7743    1.1003   -0.5652 H   0  0  0  0  0
   -2.7342    0.5839    1.1264 H   0  0  0  0  0
   -3.6008   -0.3857   -0.0740 H   0  0  0  0  0
    4.0017    0.5622   -0.3978 H   0  0  0  0  0
    0.0772   -2.0882    1.2797 H   0  0  0  0  0
    0.9761   -1.0927    2.2078 H   0  0  0  0  0
   -0.2946    0.8747    0.9409 H   0  0  0  0  0
   -0.8546    1.8210   -1.3267 H   0  0  0  0  0
    0.2027    0.6287   -2.0998 H   0  0  0  0  0
    0.8879    1.8518   -1.0166 H   0  0  0  0  0
  1  2  1  0  0  0
  1  6  2  0  0  0
  1  7  1  0  0  0
  2  3  1  0  0  0
  2  8  1  0  0  0
  2  9  1  0  0  0
  3  4  1  0  0  0
  3 10  1  0  0  0
  3 19  1  0  0  0
  4  5  1  0  0  0
  4 11  1  0  0  0
  4 12  1  0  0  0
  5 13  1  0  0  0
  5 14  1  0  0  0
  5 15  1  0  0  0
 16  7  1  0  0  0
  8 17  1  0  0  0
  8 18  1  0  0  0
 10 20  1  0  0  0
 10 21  1  0  0  0
 10 22  1  0  0  0
M  END
