(2S)-2-Amino-3-(4-hydroxyphenyl)propanoic acid
 OpenBabel01150813363D

 24 24  0  0  0  0  0  0  0  0999 V2000
    1.1707   -2.1798    0.2280 N   0  0  0  0  0
    1.4908   -0.9837   -0.5822 C   0  0  0  0  0
    2.9459   -0.9623   -1.0456 C   0  0  0  0  0
    3.9148   -1.4973   -0.5363 O   0  0  0  0  0
    3.1851   -0.2638   -2.1775 O   0  0  0  0  0
    1.2054    0.3101    0.2007 C   0  0  0  0  0
    1.6738    0.2722    1.2059 H   0  0  0  0  0
    1.6807    1.1665   -0.3200 H   0  0  0  0  0
   -0.2618    0.5678    0.3166 C   0  0  0  0  0
   -0.9635    1.0871   -0.7751 C   0  0  0  0  0
   -0.4322    1.2953   -1.7114 H   0  0  0  0  0
   -2.3238    1.3414   -0.6866 C   0  0  0  0  0
   -2.8714    1.7490   -1.5437 H   0  0  0  0  0
   -2.9904    1.0687    0.5166 C   0  0  0  0  0
   -2.2990    0.5483    1.6176 C   0  0  0  0  0
   -2.8183    0.3319    2.5581 H   0  0  0  0  0
   -0.9360    0.3013    1.5077 C   0  0  0  0  0
   -0.3910   -0.1117    2.3644 H   0  0  0  0  0
   -4.3306    1.3430    0.5384 O   0  0  0  0  0
   -4.6631    1.1030    1.3943 H   0  0  0  0  0
    0.8241   -1.0213   -1.4816 H   0  0  0  0  0
    4.1131   -0.2930   -2.3902 H   0  0  0  0  0
    1.6805   -2.1675    1.0865 H   0  0  0  0  0
    1.3961   -3.0054   -0.2843 H   0  0  0  0  0
  1  2  1  0  0  0
  1 23  1  0  0  0
  1 24  1  0  0  0
  2  3  1  0  0  0
  2  6  1  0  0  0
  2 21  1  0  0  0
  3  4  2  0  0  0
  3  5  1  0  0  0
  5 22  1  0  0  0
  6  7  1  0  0  0
  6  8  1  0  0  0
  6  9  1  0  0  0
  9 10  1  0  0  0
  9 17  2  0  0  0
 10 11  1  0  0  0
 10 12  2  0  0  0
 12 13  1  0  0  0
 12 14  1  0  0  0
 14 15  2  0  0  0
 14 19  1  0  0  0
 15 16  1  0  0  0
 15 17  1  0  0  0
 17 18  1  0  0  0
 19 20  1  0  0  0
M  END
