1,4-Dioxane
 OpenBabel01150813363D

 14 14  0  0  0  0  0  0  0  0999 V2000
    1.3309    0.4268   -0.1642 C   0  0  0  0  0
    0.1549    1.0386   -0.9369 C   0  0  0  0  0
    0.9181   -0.1241    1.0737 O   0  0  0  0  0
   -0.1548   -1.0385    0.9369 C   0  0  0  0  0
   -1.3308   -0.4267    0.1642 C   0  0  0  0  0
   -0.9179    0.1240   -1.0738 O   0  0  0  0  0
    2.0677    1.1875    0.1392 H   0  0  0  0  0
   -0.2077    1.9673   -0.4571 H   0  0  0  0  0
    0.2074   -1.9674    0.4573 H   0  0  0  0  0
   -1.8505    0.3471    0.7602 H   0  0  0  0  0
    0.4191    1.2651   -1.9820 H   0  0  0  0  0
   -0.4192   -1.2650    1.9819 H   0  0  0  0  0
   -2.0675   -1.1874   -0.1391 H   0  0  0  0  0
    1.8504   -0.3471   -0.7603 H   0  0  0  0  0
  1  2  1  0  0  0
  1  3  1  0  0  0
  1  7  1  0  0  0
  1 14  1  0  0  0
  2  6  1  0  0  0
  2  8  1  0  0  0
  2 11  1  0  0  0
  3  4  1  0  0  0
  4  5  1  0  0  0
  4  9  1  0  0  0
  4 12  1  0  0  0
  5  6  1  0  0  0
  5 10  1  0  0  0
  5 13  1  0  0  0
M  END
