2,3-Dimethyloxepin
 OpenBabel01150813363D

 19 19  0  0  0  0  0  0  0  0999 V2000
   -0.6270    0.6482   -0.0743 C   0  0  0  0  0
    0.6769    0.3091   -0.0009 C   0  0  0  0  0
    1.2435   -1.0270    0.1271 C   0  0  0  0  0
    0.6115   -2.2010    0.1996 C   0  0  0  0  0
   -0.8159   -2.4190    0.1669 C   0  0  0  0  0
   -1.7809   -1.5017    0.0589 C   0  0  0  0  0
   -1.7679   -0.1453   -0.0502 O   0  0  0  0  0
   -1.1195    2.0581   -0.2061 C   0  0  0  0  0
    1.7297    1.3719   -0.0499 C   0  0  0  0  0
    2.3448   -1.0246    0.1658 H   0  0  0  0  0
    1.2121   -3.1149    0.2944 H   0  0  0  0  0
   -1.1334   -3.4664    0.2403 H   0  0  0  0  0
   -2.8508   -1.7464    0.0410 H   0  0  0  0  0
   -1.7695    2.3282    0.6386 H   0  0  0  0  0
   -1.7048    2.1853   -1.1281 H   0  0  0  0  0
   -0.3029    2.7912   -0.2355 H   0  0  0  0  0
    1.6269    2.0845    0.7800 H   0  0  0  0  0
    1.6909    1.9389   -0.9902 H   0  0  0  0  0
    2.7359    0.9311    0.0227 H   0  0  0  0  0
  1  2  2  0  0  0
  1  7  1  0  0  0
  1  8  1  0  0  0
  2  3  1  0  0  0
  2  9  1  0  0  0
  3  4  2  0  0  0
  3 10  1  0  0  0
  4  5  1  0  0  0
  4 11  1  0  0  0
  5  6  2  0  0  0
  5 12  1  0  0  0
  7  6  1  0  0  0
  6 13  1  0  0  0
  8 14  1  0  0  0
  8 15  1  0  0  0
  8 16  1  0  0  0
  9 17  1  0  0  0
  9 18  1  0  0  0
  9 19  1  0  0  0
M  END
