Ethoxyethane
 OpenBabel01150813363D

 15 14  0  0  0  0  0  0  0  0999 V2000
    2.9059    0.0294    1.5742 H   0  0  0  0  0
    2.3134   -0.0264    0.6524 C   0  0  0  0  0
    2.6344    0.7967    0.0006 H   0  0  0  0  0
    2.5754   -0.9641    0.1451 H   0  0  0  0  0
    0.8329    0.0494    0.9743 C   0  0  0  0  0
    0.5237   -0.7829    1.6371 H   0  0  0  0  0
    0.5840    0.9940    1.4972 H   0  0  0  0  0
    0.1319   -0.0237   -0.2579 O   0  0  0  0  0
   -1.2780    0.0352   -0.1039 C   0  0  0  0  0
   -1.6249   -0.7972    0.5397 H   0  0  0  0  0
   -1.5659    0.9796    0.3989 H   0  0  0  0  0
   -1.8841   -0.0549   -1.4916 C   0  0  0  0  0
   -1.5537    0.7685   -2.1382 H   0  0  0  0  0
   -1.6160   -0.9923   -1.9963 H   0  0  0  0  0
   -2.9788   -0.0113   -1.4316 H   0  0  0  0  0
  1  2  1  0  0  0
  2  3  1  0  0  0
  2  4  1  0  0  0
  2  5  1  0  0  0
  5  6  1  0  0  0
  5  7  1  0  0  0
  5  8  1  0  0  0
  8  9  1  0  0  0
  9 10  1  0  0  0
  9 11  1  0  0  0
  9 12  1  0  0  0
 12 13  1  0  0  0
 12 14  1  0  0  0
 12 15  1  0  0  0
M  END
